version 2
run General-0-20220123-16:24:03-8580
attr configname General
attr datetime 20220123-16:24:03
attr experiment General
attr inifile omnetpp.ini
attr iterationvars ""
attr iterationvars2 $repetition=0
attr measurement ""
attr network HandoverNetwork
attr processid 8580
attr repetition 0
attr replication #0
attr resultdir results
attr runnumber 0
attr seedset 0

scalar HandoverNetwork.host.networkLayer.arp 	sentReply:count 	0
attr title  "ARP replies sent, count"
scalar HandoverNetwork.host.networkLayer.arp 	sentReq:count 	0
attr title  "ARP request sent, count"
scalar HandoverNetwork.host.networkLayer.arp 	failedARPResolution:count 	0
attr title  "ARP failed resolutions, count"
scalar HandoverNetwork.host.networkLayer.arp 	completedARPResolution:count 	0
attr title  "ARP completed resolutions, count"
scalar HandoverNetwork.host.networkLayer.arp 	initiatedARPResolution:count 	0
attr title  "ARP initiated resolutions, count"
scalar HandoverNetwork.host.lo0.lo 	droppedPkBitError:count 	0
attr interpolationmode  none
attr source  dropPkBitError
attr title  "packets dropped/bit error, count"
scalar HandoverNetwork.host.lo0.lo 	droppedPkBitError:sum(packetBytes) 	0
attr interpolationmode  none
attr source  dropPkBitError
attr title  "packets dropped/bit error, sum(packetBytes)"
scalar HandoverNetwork.host.lo0.lo 	rcvdPkFromHL:count 	0
attr interpolationmode  none
attr source  packetReceivedFromUpper
attr title  "packets received from higher layer, count"
scalar HandoverNetwork.host.lo0.lo 	rcvdPkFromHL:sum(packetBytes) 	0
attr interpolationmode  none
attr source  packetReceivedFromUpper
attr title  "packets received from higher layer, sum(packetBytes)"
scalar HandoverNetwork.host.lo0.lo 	passedUpPk:count 	0
attr interpolationmode  none
attr source  packetSentToUpper
attr title  "packets passed to higher layer, count"
scalar HandoverNetwork.host.lo0.lo 	passedUpPk:sum(packetBytes) 	0
attr interpolationmode  none
attr source  packetSentToUpper
attr title  "packets passed to higher layer, sum(packetBytes)"
scalar HandoverNetwork.host.wlan[0].agent 	dropConfirm:count 	0
attr title  "dropped confirms, count"
scalar HandoverNetwork.host.wlan[0].agent 	acceptConfirm:count 	0
attr title  "accepted confirms, count"
scalar HandoverNetwork.host.wlan[0].agent 	sentRequest:count 	1
attr title  "sent requests, count"
scalar HandoverNetwork.host.wlan[0].mac.statistics 	numReceivedUnicast 	4
scalar HandoverNetwork.host.wlan[0].mac.statistics 	numReceivedBroadcast 	16
scalar HandoverNetwork.host.wlan[0].mac.statistics 	numReceivedMulticast 	0
scalar HandoverNetwork.host.wlan[0].mac.statistics 	numReceivedNotForUs 	0
scalar HandoverNetwork.host.wlan[0].mac.statistics 	numReceivedErroneous 	1
scalar HandoverNetwork.host.wlan[0].mac 	rcvdPkFromHL:count 	5
attr interpolationmode  none
attr source  packetReceivedFromUpper
attr title  "packets received from higher layer, count"
scalar HandoverNetwork.host.wlan[0].mac 	rcvdPkFromHL:sum(packetBytes) 	200
attr interpolationmode  none
attr source  packetReceivedFromUpper
attr title  "packets received from higher layer, sum(packetBytes)"
scalar HandoverNetwork.host.wlan[0].mac 	passedUpPk:count 	19
attr interpolationmode  none
attr source  packetSentToUpper
attr title  "packets passed to higher layer, count"
scalar HandoverNetwork.host.wlan[0].mac 	passedUpPk:sum(packetBytes) 	986
attr interpolationmode  none
attr source  packetSentToUpper
attr title  "packets passed to higher layer, sum(packetBytes)"
scalar HandoverNetwork.host.wlan[0].mac 	rcvdPkFromLL:count 	21
attr interpolationmode  none
attr source  packetReceivedFromLower
attr title  "packets received from lower layer, count"
scalar HandoverNetwork.host.wlan[0].mac 	rcvdPkFromLL:sum(packetBytes) 	1142
attr interpolationmode  none
attr source  packetReceivedFromLower
attr title  "packets received from lower layer, sum(packetBytes)"
scalar HandoverNetwork.host.wlan[0].mac 	sentDownPk:count 	9
attr interpolationmode  none
attr source  packetSentToLower
attr title  "packets sent to lower layer, count"
scalar HandoverNetwork.host.wlan[0].mac 	sentDownPk:sum(packetBytes) 	256
attr interpolationmode  none
attr source  packetSentToLower
attr title  "packets sent to lower layer, sum(packetBytes)"
statistic HandoverNetwork.host.wlan[0].radio 	symbolErrorRate:histogram
field count 0
field mean nan
field stddev nan
field sum 0
field sqrsum 0
field min nan
field max nan
attr source  symbolErrorRate
attr title  "Symbol error rate, histogram"
bin	-INF	0
bin	-0.5	0
bin	-0.46666666666667	0
bin	-0.43333333333333	0
bin	-0.4	0
bin	-0.36666666666667	0
bin	-0.33333333333333	0
bin	-0.3	0
bin	-0.26666666666667	0
bin	-0.23333333333333	0
bin	-0.2	0
bin	-0.16666666666667	0
bin	-0.13333333333333	0
bin	-0.1	0
bin	-0.066666666666667	0
bin	-0.033333333333333	0
bin	-6.9388939039072e-018	0
bin	0.033333333333333	0
bin	0.066666666666667	0
bin	0.1	0
bin	0.13333333333333	0
bin	0.16666666666667	0
bin	0.2	0
bin	0.23333333333333	0
bin	0.26666666666667	0
bin	0.3	0
bin	0.33333333333333	0
bin	0.36666666666667	0
bin	0.4	0
bin	0.43333333333333	0
bin	0.46666666666667	0
bin	0.5	0
statistic HandoverNetwork.host.wlan[0].radio 	bitErrorRate:histogram
field count 0
field mean nan
field stddev nan
field sum 0
field sqrsum 0
field min nan
field max nan
attr source  bitErrorRate
attr title  "Bit error rate, histogram"
bin	-INF	0
bin	-0.5	0
bin	-0.46666666666667	0
bin	-0.43333333333333	0
bin	-0.4	0
bin	-0.36666666666667	0
bin	-0.33333333333333	0
bin	-0.3	0
bin	-0.26666666666667	0
bin	-0.23333333333333	0
bin	-0.2	0
bin	-0.16666666666667	0
bin	-0.13333333333333	0
bin	-0.1	0
bin	-0.066666666666667	0
bin	-0.033333333333333	0
bin	-6.9388939039072e-018	0
bin	0.033333333333333	0
bin	0.066666666666667	0
bin	0.1	0
bin	0.13333333333333	0
bin	0.16666666666667	0
bin	0.2	0
bin	0.23333333333333	0
bin	0.26666666666667	0
bin	0.3	0
bin	0.33333333333333	0
bin	0.36666666666667	0
bin	0.4	0
bin	0.43333333333333	0
bin	0.46666666666667	0
bin	0.5	0
statistic HandoverNetwork.host.wlan[0].radio 	packetErrorRate:histogram
field count 21
field mean 0.047619047619048
field stddev 0.21821789023599
field sum 1
field sqrsum 1
field min 0
field max 1
attr source  packetErrorRate
attr title  "Packet error rate, histogram"
bin	-INF	0
bin	-1	0
bin	0	20
bin	1	1
bin	2	0
statistic HandoverNetwork.host.wlan[0].radio 	minSNIR:histogram
field count 21
field mean 7986.3733161547
field stddev 2504.0301555892
field sum 167713.83963925
field sqrsum 1464828674.0468
field min 0.99989864997191
field max 10458.942800379
attr source  minSNIR
attr title  "Min SNIR, histogram"
bin	-INF	0
bin	-5227.9715522144	0
bin	-4530.7753587658	0
bin	-3833.5791653172	0
bin	-3136.3829718686	0
bin	-2439.18677842	0
bin	-1741.9905849715	0
bin	-1044.7943915229	0
bin	-347.59819807432	1
bin	349.59799537426	0
bin	1046.7941888228	0
bin	1743.9903822714	0
bin	2441.18657572	0
bin	3138.3827691686	0
bin	3835.5789626171	0
bin	4532.7751560657	0
bin	5229.9713495143	0
bin	5927.1675429629	5
bin	6624.3637364115	5
bin	7321.55992986	0
bin	8018.7561233086	0
bin	8715.9523167572	0
bin	9413.1485102058	6
bin	10110.344703654	4
bin	10807.540897103	0
bin	11504.737090551	0
bin	12201.933284	0
bin	12899.129477449	0
bin	13596.325670897	0
bin	14293.521864346	0
bin	14990.718057794	0
bin	15687.914251243	0
scalar HandoverNetwork.host.wlan[0].radio 	transmissionState:count 	36
attr interpolationmode  sample-hold
attr source  transmissionStateChanged
attr title  "Radio transmission state, count"
scalar HandoverNetwork.host.wlan[0].radio 	receptionState:count 	61
attr interpolationmode  sample-hold
attr source  receptionStateChanged
attr title  "Radio reception state, count"
scalar HandoverNetwork.host.wlan[0].radio 	radioMode:count 	20
attr interpolationmode  sample-hold
attr source  radioModeChanged
attr title  "Radio mode, count"
statistic HandoverNetwork.host.wlan[0].radio 	radioChannel:histogram
field count 6
field mean 1.6666666666667
field stddev 1.6329931618555
field sum 10
field sqrsum 30
field min 0
field max 4
attr interpolationmode  sample-hold
attr source  radioChannelChanged
attr title  "Radio channel, histogram"
bin	-INF	0
bin	-2	0
bin	-1	0
bin	0	2
bin	1	1
bin	2	1
bin	3	1
bin	4	1
bin	5	0
bin	6	0
scalar HandoverNetwork.ap1.relayUnit 	"number of received BPDUs from STP module" 	0
scalar HandoverNetwork.ap1.relayUnit 	"number of received frames from network (including BPDUs)" 	0
scalar HandoverNetwork.ap1.relayUnit 	"number of dropped frames (including BPDUs)" 	0
scalar HandoverNetwork.ap1.relayUnit 	"number of delivered BPDUs to the STP module" 	0
scalar HandoverNetwork.ap1.relayUnit 	"number of dispatched BPDU frames to the network" 	0
scalar HandoverNetwork.ap1.relayUnit 	"number of dispatched non-BDPU frames to the network" 	0
scalar HandoverNetwork.ap1.wlan[0].mac.statistics 	numReceivedUnicast 	0
scalar HandoverNetwork.ap1.wlan[0].mac.statistics 	numReceivedBroadcast 	19
scalar HandoverNetwork.ap1.wlan[0].mac.statistics 	numReceivedMulticast 	0
scalar HandoverNetwork.ap1.wlan[0].mac.statistics 	numReceivedNotForUs 	1
scalar HandoverNetwork.ap1.wlan[0].mac.statistics 	numReceivedErroneous 	0
scalar HandoverNetwork.ap1.wlan[0].mac 	rcvdPkFromHL:count 	18
attr interpolationmode  none
attr source  packetReceivedFromUpper
attr title  "packets received from higher layer, count"
scalar HandoverNetwork.ap1.wlan[0].mac 	rcvdPkFromHL:sum(packetBytes) 	877
attr interpolationmode  none
attr source  packetReceivedFromUpper
attr title  "packets received from higher layer, sum(packetBytes)"
scalar HandoverNetwork.ap1.wlan[0].mac 	passedUpPk:count 	19
attr interpolationmode  none
attr source  packetSentToUpper
attr title  "packets passed to higher layer, count"
scalar HandoverNetwork.ap1.wlan[0].mac 	passedUpPk:sum(packetBytes) 	886
attr interpolationmode  none
attr source  packetSentToUpper
attr title  "packets passed to higher layer, sum(packetBytes)"
scalar HandoverNetwork.ap1.wlan[0].mac 	rcvdPkFromLL:count 	22
attr interpolationmode  none
attr source  packetReceivedFromLower
attr title  "packets received from lower layer, count"
scalar HandoverNetwork.ap1.wlan[0].mac 	rcvdPkFromLL:sum(packetBytes) 	992
attr interpolationmode  none
attr source  packetReceivedFromLower
attr title  "packets received from lower layer, sum(packetBytes)"
scalar HandoverNetwork.ap1.wlan[0].mac 	sentDownPk:count 	19
attr interpolationmode  none
attr source  packetSentToLower
attr title  "packets sent to lower layer, count"
scalar HandoverNetwork.ap1.wlan[0].mac 	sentDownPk:sum(packetBytes) 	955
attr interpolationmode  none
attr source  packetSentToLower
attr title  "packets sent to lower layer, sum(packetBytes)"
statistic HandoverNetwork.ap1.wlan[0].radio 	symbolErrorRate:histogram
field count 0
field mean nan
field stddev nan
field sum 0
field sqrsum 0
field min nan
field max nan
attr source  symbolErrorRate
attr title  "Symbol error rate, histogram"
bin	-INF	0
bin	-0.5	0
bin	-0.46666666666667	0
bin	-0.43333333333333	0
bin	-0.4	0
bin	-0.36666666666667	0
bin	-0.33333333333333	0
bin	-0.3	0
bin	-0.26666666666667	0
bin	-0.23333333333333	0
bin	-0.2	0
bin	-0.16666666666667	0
bin	-0.13333333333333	0
bin	-0.1	0
bin	-0.066666666666667	0
bin	-0.033333333333333	0
bin	-6.9388939039072e-018	0
bin	0.033333333333333	0
bin	0.066666666666667	0
bin	0.1	0
bin	0.13333333333333	0
bin	0.16666666666667	0
bin	0.2	0
bin	0.23333333333333	0
bin	0.26666666666667	0
bin	0.3	0
bin	0.33333333333333	0
bin	0.36666666666667	0
bin	0.4	0
bin	0.43333333333333	0
bin	0.46666666666667	0
bin	0.5	0
statistic HandoverNetwork.ap1.wlan[0].radio 	bitErrorRate:histogram
field count 0
field mean nan
field stddev nan
field sum 0
field sqrsum 0
field min nan
field max nan
attr source  bitErrorRate
attr title  "Bit error rate, histogram"
bin	-INF	0
bin	-0.5	0
bin	-0.46666666666667	0
bin	-0.43333333333333	0
bin	-0.4	0
bin	-0.36666666666667	0
bin	-0.33333333333333	0
bin	-0.3	0
bin	-0.26666666666667	0
bin	-0.23333333333333	0
bin	-0.2	0
bin	-0.16666666666667	0
bin	-0.13333333333333	0
bin	-0.1	0
bin	-0.066666666666667	0
bin	-0.033333333333333	0
bin	-6.9388939039072e-018	0
bin	0.033333333333333	0
bin	0.066666666666667	0
bin	0.1	0
bin	0.13333333333333	0
bin	0.16666666666667	0
bin	0.2	0
bin	0.23333333333333	0
bin	0.26666666666667	0
bin	0.3	0
bin	0.33333333333333	0
bin	0.36666666666667	0
bin	0.4	0
bin	0.43333333333333	0
bin	0.46666666666667	0
bin	0.5	0
statistic HandoverNetwork.ap1.wlan[0].radio 	packetErrorRate:histogram
field count 22
field mean 0
field stddev 0
field sum 0
field sqrsum 0
field min 0
field max 0
attr source  packetErrorRate
attr title  "Packet error rate, histogram"
bin	-INF	0
bin	-0.5	0
bin	-0.46666666666667	0
bin	-0.43333333333333	0
bin	-0.4	0
bin	-0.36666666666667	0
bin	-0.33333333333333	0
bin	-0.3	0
bin	-0.26666666666667	0
bin	-0.23333333333333	0
bin	-0.2	0
bin	-0.16666666666667	0
bin	-0.13333333333333	0
bin	-0.1	0
bin	-0.066666666666667	0
bin	-0.033333333333333	0
bin	-6.9388939039072e-018	22
bin	0.033333333333333	0
bin	0.066666666666667	0
bin	0.1	0
bin	0.13333333333333	0
bin	0.16666666666667	0
bin	0.2	0
bin	0.23333333333333	0
bin	0.26666666666667	0
bin	0.3	0
bin	0.33333333333333	0
bin	0.36666666666667	0
bin	0.4	0
bin	0.43333333333333	0
bin	0.46666666666667	0
bin	0.5	0
statistic HandoverNetwork.ap1.wlan[0].radio 	minSNIR:histogram
field count 22
field mean 431818182356.45
field stddev 175625041942.07
field sum 9500000011841.8
field sqrsum 4.75e+024
field min 3946.1822793873
field max 500000000000
attr source  minSNIR
attr title  "Min SNIR, histogram"
bin	-INF	0
bin	-249999994080.73	0
bin	-216666661010.47	0
bin	-183333327940.22	0
bin	-149999994869.96	0
bin	-116666661799.71	0
bin	-83333328729.454	0
bin	-49999995659.2	0
bin	-16666662588.945	3
bin	16666670481.31	0
bin	50000003551.564	0
bin	83333336621.819	0
bin	116666669692.07	0
bin	150000002762.33	0
bin	183333335832.58	0
bin	216666668902.84	0
bin	250000001973.09	0
bin	283333335043.35	0
bin	316666668113.6	0
bin	350000001183.85	0
bin	383333334254.11	0
bin	416666667324.36	0
bin	450000000394.62	0
bin	483333333464.87	19
bin	516666666535.13	0
bin	549999999605.38	0
bin	583333332675.64	0
bin	616666665745.89	0
bin	649999998816.15	0
bin	683333331886.4	0
bin	716666664956.65	0
bin	749999998026.91	0
scalar HandoverNetwork.ap1.wlan[0].radio 	transmissionState:count 	76
attr interpolationmode  sample-hold
attr source  transmissionStateChanged
attr title  "Radio transmission state, count"
scalar HandoverNetwork.ap1.wlan[0].radio 	receptionState:count 	83
attr interpolationmode  sample-hold
attr source  receptionStateChanged
attr title  "Radio reception state, count"
scalar HandoverNetwork.ap1.wlan[0].radio 	radioMode:count 	40
attr interpolationmode  sample-hold
attr source  radioModeChanged
attr title  "Radio mode, count"
statistic HandoverNetwork.ap1.wlan[0].radio 	radioChannel:histogram
field count 1
field mean 2
field stddev nan
field sum 2
field sqrsum 4
field min 2
field max 2
attr interpolationmode  sample-hold
attr source  radioChannelChanged
attr title  "Radio channel, histogram"
bin	-INF	0
bin	1	0
bin	2	1
bin	3	0
scalar HandoverNetwork.ap1.wlan[1].mac.statistics 	numReceivedUnicast 	0
scalar HandoverNetwork.ap1.wlan[1].mac.statistics 	numReceivedBroadcast 	18
scalar HandoverNetwork.ap1.wlan[1].mac.statistics 	numReceivedMulticast 	0
scalar HandoverNetwork.ap1.wlan[1].mac.statistics 	numReceivedNotForUs 	1
scalar HandoverNetwork.ap1.wlan[1].mac.statistics 	numReceivedErroneous 	0
scalar HandoverNetwork.ap1.wlan[1].mac 	rcvdPkFromHL:count 	19
attr interpolationmode  none
attr source  packetReceivedFromUpper
attr title  "packets received from higher layer, count"
scalar HandoverNetwork.ap1.wlan[1].mac 	rcvdPkFromHL:sum(packetBytes) 	924
attr interpolationmode  none
attr source  packetReceivedFromUpper
attr title  "packets received from higher layer, sum(packetBytes)"
scalar HandoverNetwork.ap1.wlan[1].mac 	passedUpPk:count 	18
attr interpolationmode  none
attr source  packetSentToUpper
attr title  "packets passed to higher layer, count"
scalar HandoverNetwork.ap1.wlan[1].mac 	passedUpPk:sum(packetBytes) 	839
attr interpolationmode  none
attr source  packetSentToUpper
attr title  "packets passed to higher layer, sum(packetBytes)"
scalar HandoverNetwork.ap1.wlan[1].mac 	rcvdPkFromLL:count 	21
attr interpolationmode  none
attr source  packetReceivedFromLower
attr title  "packets received from lower layer, count"
scalar HandoverNetwork.ap1.wlan[1].mac 	rcvdPkFromLL:sum(packetBytes) 	945
attr interpolationmode  none
attr source  packetReceivedFromLower
attr title  "packets received from lower layer, sum(packetBytes)"
scalar HandoverNetwork.ap1.wlan[1].mac 	sentDownPk:count 	20
attr interpolationmode  none
attr source  packetSentToLower
attr title  "packets sent to lower layer, count"
scalar HandoverNetwork.ap1.wlan[1].mac 	sentDownPk:sum(packetBytes) 	1002
attr interpolationmode  none
attr source  packetSentToLower
attr title  "packets sent to lower layer, sum(packetBytes)"
statistic HandoverNetwork.ap1.wlan[1].radio 	symbolErrorRate:histogram
field count 0
field mean nan
field stddev nan
field sum 0
field sqrsum 0
field min nan
field max nan
attr source  symbolErrorRate
attr title  "Symbol error rate, histogram"
bin	-INF	0
bin	-0.5	0
bin	-0.46666666666667	0
bin	-0.43333333333333	0
bin	-0.4	0
bin	-0.36666666666667	0
bin	-0.33333333333333	0
bin	-0.3	0
bin	-0.26666666666667	0
bin	-0.23333333333333	0
bin	-0.2	0
bin	-0.16666666666667	0
bin	-0.13333333333333	0
bin	-0.1	0
bin	-0.066666666666667	0
bin	-0.033333333333333	0
bin	-6.9388939039072e-018	0
bin	0.033333333333333	0
bin	0.066666666666667	0
bin	0.1	0
bin	0.13333333333333	0
bin	0.16666666666667	0
bin	0.2	0
bin	0.23333333333333	0
bin	0.26666666666667	0
bin	0.3	0
bin	0.33333333333333	0
bin	0.36666666666667	0
bin	0.4	0
bin	0.43333333333333	0
bin	0.46666666666667	0
bin	0.5	0
statistic HandoverNetwork.ap1.wlan[1].radio 	bitErrorRate:histogram
field count 0
field mean nan
field stddev nan
field sum 0
field sqrsum 0
field min nan
field max nan
attr source  bitErrorRate
attr title  "Bit error rate, histogram"
bin	-INF	0
bin	-0.5	0
bin	-0.46666666666667	0
bin	-0.43333333333333	0
bin	-0.4	0
bin	-0.36666666666667	0
bin	-0.33333333333333	0
bin	-0.3	0
bin	-0.26666666666667	0
bin	-0.23333333333333	0
bin	-0.2	0
bin	-0.16666666666667	0
bin	-0.13333333333333	0
bin	-0.1	0
bin	-0.066666666666667	0
bin	-0.033333333333333	0
bin	-6.9388939039072e-018	0
bin	0.033333333333333	0
bin	0.066666666666667	0
bin	0.1	0
bin	0.13333333333333	0
bin	0.16666666666667	0
bin	0.2	0
bin	0.23333333333333	0
bin	0.26666666666667	0
bin	0.3	0
bin	0.33333333333333	0
bin	0.36666666666667	0
bin	0.4	0
bin	0.43333333333333	0
bin	0.46666666666667	0
bin	0.5	0
statistic HandoverNetwork.ap1.wlan[1].radio 	packetErrorRate:histogram
field count 21
field mean 0
field stddev 0
field sum 0
field sqrsum 0
field min 0
field max 0
attr source  packetErrorRate
attr title  "Packet error rate, histogram"
bin	-INF	0
bin	-0.5	0
bin	-0.46666666666667	0
bin	-0.43333333333333	0
bin	-0.4	0
bin	-0.36666666666667	0
bin	-0.33333333333333	0
bin	-0.3	0
bin	-0.26666666666667	0
bin	-0.23333333333333	0
bin	-0.2	0
bin	-0.16666666666667	0
bin	-0.13333333333333	0
bin	-0.1	0
bin	-0.066666666666667	0
bin	-0.033333333333333	0
bin	-6.9388939039072e-018	21
bin	0.033333333333333	0
bin	0.066666666666667	0
bin	0.1	0
bin	0.13333333333333	0
bin	0.16666666666667	0
bin	0.2	0
bin	0.23333333333333	0
bin	0.26666666666667	0
bin	0.3	0
bin	0.33333333333333	0
bin	0.36666666666667	0
bin	0.4	0
bin	0.43333333333333	0
bin	0.46666666666667	0
bin	0.5	0
statistic HandoverNetwork.ap1.wlan[1].radio 	minSNIR:histogram
field count 21
field mean 428571429135.33
field stddev 179284289984.79
field sum 9000000011841.8
field sqrsum 4.5e+024
field min 3946.1822793873
field max 500000000000
attr source  minSNIR
attr title  "Min SNIR, histogram"
bin	-INF	0
bin	-249999994080.73	0
bin	-216666661010.47	0
bin	-183333327940.22	0
bin	-149999994869.96	0
bin	-116666661799.71	0
bin	-83333328729.454	0
bin	-49999995659.2	0
bin	-16666662588.945	3
bin	16666670481.31	0
bin	50000003551.564	0
bin	83333336621.819	0
bin	116666669692.07	0
bin	150000002762.33	0
bin	183333335832.58	0
bin	216666668902.84	0
bin	250000001973.09	0
bin	283333335043.35	0
bin	316666668113.6	0
bin	350000001183.85	0
bin	383333334254.11	0
bin	416666667324.36	0
bin	450000000394.62	0
bin	483333333464.87	18
bin	516666666535.13	0
bin	549999999605.38	0
bin	583333332675.64	0
bin	616666665745.89	0
bin	649999998816.15	0
bin	683333331886.4	0
bin	716666664956.65	0
bin	749999998026.91	0
scalar HandoverNetwork.ap1.wlan[1].radio 	transmissionState:count 	80
attr interpolationmode  sample-hold
attr source  transmissionStateChanged
attr title  "Radio transmission state, count"
scalar HandoverNetwork.ap1.wlan[1].radio 	receptionState:count 	83
attr interpolationmode  sample-hold
attr source  receptionStateChanged
attr title  "Radio reception state, count"
scalar HandoverNetwork.ap1.wlan[1].radio 	radioMode:count 	42
attr interpolationmode  sample-hold
attr source  radioModeChanged
attr title  "Radio mode, count"
statistic HandoverNetwork.ap1.wlan[1].radio 	radioChannel:histogram
field count 1
field mean 2
field stddev nan
field sum 2
field sqrsum 4
field min 2
field max 2
attr interpolationmode  sample-hold
attr source  radioChannelChanged
attr title  "Radio channel, histogram"
bin	-INF	0
bin	1	0
bin	2	1
bin	3	0
scalar HandoverNetwork.ap2.relayUnit 	"number of received BPDUs from STP module" 	0
scalar HandoverNetwork.ap2.relayUnit 	"number of received frames from network (including BPDUs)" 	0
scalar HandoverNetwork.ap2.relayUnit 	"number of dropped frames (including BPDUs)" 	0
scalar HandoverNetwork.ap2.relayUnit 	"number of delivered BPDUs to the STP module" 	0
scalar HandoverNetwork.ap2.relayUnit 	"number of dispatched BPDU frames to the network" 	0
scalar HandoverNetwork.ap2.relayUnit 	"number of dispatched non-BDPU frames to the network" 	0
scalar HandoverNetwork.ap2.wlan[0].mac.statistics 	numReceivedUnicast 	0
scalar HandoverNetwork.ap2.wlan[0].mac.statistics 	numReceivedBroadcast 	19
scalar HandoverNetwork.ap2.wlan[0].mac.statistics 	numReceivedMulticast 	0
scalar HandoverNetwork.ap2.wlan[0].mac.statistics 	numReceivedNotForUs 	1
scalar HandoverNetwork.ap2.wlan[0].mac.statistics 	numReceivedErroneous 	0
scalar HandoverNetwork.ap2.wlan[0].mac 	rcvdPkFromHL:count 	19
attr interpolationmode  none
attr source  packetReceivedFromUpper
attr title  "packets received from higher layer, count"
scalar HandoverNetwork.ap2.wlan[0].mac 	rcvdPkFromHL:sum(packetBytes) 	924
attr interpolationmode  none
attr source  packetReceivedFromUpper
attr title  "packets received from higher layer, sum(packetBytes)"
scalar HandoverNetwork.ap2.wlan[0].mac 	passedUpPk:count 	19
attr interpolationmode  none
attr source  packetSentToUpper
attr title  "packets passed to higher layer, count"
scalar HandoverNetwork.ap2.wlan[0].mac 	passedUpPk:sum(packetBytes) 	886
attr interpolationmode  none
attr source  packetSentToUpper
attr title  "packets passed to higher layer, sum(packetBytes)"
scalar HandoverNetwork.ap2.wlan[0].mac 	rcvdPkFromLL:count 	22
attr interpolationmode  none
attr source  packetReceivedFromLower
attr title  "packets received from lower layer, count"
scalar HandoverNetwork.ap2.wlan[0].mac 	rcvdPkFromLL:sum(packetBytes) 	992
attr interpolationmode  none
attr source  packetReceivedFromLower
attr title  "packets received from lower layer, sum(packetBytes)"
scalar HandoverNetwork.ap2.wlan[0].mac 	sentDownPk:count 	19
attr interpolationmode  none
attr source  packetSentToLower
attr title  "packets sent to lower layer, count"
scalar HandoverNetwork.ap2.wlan[0].mac 	sentDownPk:sum(packetBytes) 	924
attr interpolationmode  none
attr source  packetSentToLower
attr title  "packets sent to lower layer, sum(packetBytes)"
statistic HandoverNetwork.ap2.wlan[0].radio 	symbolErrorRate:histogram
field count 0
field mean nan
field stddev nan
field sum 0
field sqrsum 0
field min nan
field max nan
attr source  symbolErrorRate
attr title  "Symbol error rate, histogram"
bin	-INF	0
bin	-0.5	0
bin	-0.46666666666667	0
bin	-0.43333333333333	0
bin	-0.4	0
bin	-0.36666666666667	0
bin	-0.33333333333333	0
bin	-0.3	0
bin	-0.26666666666667	0
bin	-0.23333333333333	0
bin	-0.2	0
bin	-0.16666666666667	0
bin	-0.13333333333333	0
bin	-0.1	0
bin	-0.066666666666667	0
bin	-0.033333333333333	0
bin	-6.9388939039072e-018	0
bin	0.033333333333333	0
bin	0.066666666666667	0
bin	0.1	0
bin	0.13333333333333	0
bin	0.16666666666667	0
bin	0.2	0
bin	0.23333333333333	0
bin	0.26666666666667	0
bin	0.3	0
bin	0.33333333333333	0
bin	0.36666666666667	0
bin	0.4	0
bin	0.43333333333333	0
bin	0.46666666666667	0
bin	0.5	0
statistic HandoverNetwork.ap2.wlan[0].radio 	bitErrorRate:histogram
field count 0
field mean nan
field stddev nan
field sum 0
field sqrsum 0
field min nan
field max nan
attr source  bitErrorRate
attr title  "Bit error rate, histogram"
bin	-INF	0
bin	-0.5	0
bin	-0.46666666666667	0
bin	-0.43333333333333	0
bin	-0.4	0
bin	-0.36666666666667	0
bin	-0.33333333333333	0
bin	-0.3	0
bin	-0.26666666666667	0
bin	-0.23333333333333	0
bin	-0.2	0
bin	-0.16666666666667	0
bin	-0.13333333333333	0
bin	-0.1	0
bin	-0.066666666666667	0
bin	-0.033333333333333	0
bin	-6.9388939039072e-018	0
bin	0.033333333333333	0
bin	0.066666666666667	0
bin	0.1	0
bin	0.13333333333333	0
bin	0.16666666666667	0
bin	0.2	0
bin	0.23333333333333	0
bin	0.26666666666667	0
bin	0.3	0
bin	0.33333333333333	0
bin	0.36666666666667	0
bin	0.4	0
bin	0.43333333333333	0
bin	0.46666666666667	0
bin	0.5	0
statistic HandoverNetwork.ap2.wlan[0].radio 	packetErrorRate:histogram
field count 22
field mean 0
field stddev 0
field sum 0
field sqrsum 0
field min 0
field max 0
attr source  packetErrorRate
attr title  "Packet error rate, histogram"
bin	-INF	0
bin	-0.5	0
bin	-0.46666666666667	0
bin	-0.43333333333333	0
bin	-0.4	0
bin	-0.36666666666667	0
bin	-0.33333333333333	0
bin	-0.3	0
bin	-0.26666666666667	0
bin	-0.23333333333333	0
bin	-0.2	0
bin	-0.16666666666667	0
bin	-0.13333333333333	0
bin	-0.1	0
bin	-0.066666666666667	0
bin	-0.033333333333333	0
bin	-6.9388939039072e-018	22
bin	0.033333333333333	0
bin	0.066666666666667	0
bin	0.1	0
bin	0.13333333333333	0
bin	0.16666666666667	0
bin	0.2	0
bin	0.23333333333333	0
bin	0.26666666666667	0
bin	0.3	0
bin	0.33333333333333	0
bin	0.36666666666667	0
bin	0.4	0
bin	0.43333333333333	0
bin	0.46666666666667	0
bin	0.5	0
statistic HandoverNetwork.ap2.wlan[0].radio 	minSNIR:histogram
field count 22
field mean 172727273614.79
field stddev 70250015045.333
field sum 3800000019525.3
field sqrsum 7.6e+023
field min 6506.7223835972
field max 200000000000
attr source  minSNIR
attr title  "Min SNIR, histogram"
bin	-INF	0
bin	-99999990239.916	0
bin	-86666657340.365	0
bin	-73333324440.813	0
bin	-59999991541.261	0
bin	-46666658641.709	0
bin	-33333325742.157	0
bin	-19999992842.605	0
bin	-6666659943.0535	3
bin	6666672956.4983	0
bin	20000005856.05	0
bin	33333338755.602	0
bin	46666671655.154	0
bin	60000004554.706	0
bin	73333337454.257	0
bin	86666670353.809	0
bin	100000003253.36	0
bin	113333336152.91	0
bin	126666669052.46	0
bin	140000001952.02	0
bin	153333334851.57	0
bin	166666667751.12	0
bin	180000000650.67	0
bin	193333333550.22	19
bin	206666666449.78	0
bin	219999999349.33	0
bin	233333332248.88	0
bin	246666665148.43	0
bin	259999998047.98	0
bin	273333330947.54	0
bin	286666663847.09	0
bin	299999996746.64	0
scalar HandoverNetwork.ap2.wlan[0].radio 	transmissionState:count 	76
attr interpolationmode  sample-hold
attr source  transmissionStateChanged
attr title  "Radio transmission state, count"
scalar HandoverNetwork.ap2.wlan[0].radio 	receptionState:count 	83
attr interpolationmode  sample-hold
attr source  receptionStateChanged
attr title  "Radio reception state, count"
scalar HandoverNetwork.ap2.wlan[0].radio 	radioMode:count 	40
attr interpolationmode  sample-hold
attr source  radioModeChanged
attr title  "Radio mode, count"
statistic HandoverNetwork.ap2.wlan[0].radio 	radioChannel:histogram
field count 1
field mean 3
field stddev nan
field sum 3
field sqrsum 9
field min 3
field max 3
attr interpolationmode  sample-hold
attr source  radioChannelChanged
attr title  "Radio channel, histogram"
bin	-INF	0
bin	2	0
bin	3	1
bin	4	0
scalar HandoverNetwork.ap2.wlan[1].mac.statistics 	numReceivedUnicast 	0
scalar HandoverNetwork.ap2.wlan[1].mac.statistics 	numReceivedBroadcast 	19
scalar HandoverNetwork.ap2.wlan[1].mac.statistics 	numReceivedMulticast 	0
scalar HandoverNetwork.ap2.wlan[1].mac.statistics 	numReceivedNotForUs 	1
scalar HandoverNetwork.ap2.wlan[1].mac.statistics 	numReceivedErroneous 	0
scalar HandoverNetwork.ap2.wlan[1].mac 	rcvdPkFromHL:count 	19
attr interpolationmode  none
attr source  packetReceivedFromUpper
attr title  "packets received from higher layer, count"
scalar HandoverNetwork.ap2.wlan[1].mac 	rcvdPkFromHL:sum(packetBytes) 	924
attr interpolationmode  none
attr source  packetReceivedFromUpper
attr title  "packets received from higher layer, sum(packetBytes)"
scalar HandoverNetwork.ap2.wlan[1].mac 	passedUpPk:count 	19
attr interpolationmode  none
attr source  packetSentToUpper
attr title  "packets passed to higher layer, count"
scalar HandoverNetwork.ap2.wlan[1].mac 	passedUpPk:sum(packetBytes) 	886
attr interpolationmode  none
attr source  packetSentToUpper
attr title  "packets passed to higher layer, sum(packetBytes)"
scalar HandoverNetwork.ap2.wlan[1].mac 	rcvdPkFromLL:count 	22
attr interpolationmode  none
attr source  packetReceivedFromLower
attr title  "packets received from lower layer, count"
scalar HandoverNetwork.ap2.wlan[1].mac 	rcvdPkFromLL:sum(packetBytes) 	992
attr interpolationmode  none
attr source  packetReceivedFromLower
attr title  "packets received from lower layer, sum(packetBytes)"
scalar HandoverNetwork.ap2.wlan[1].mac 	sentDownPk:count 	19
attr interpolationmode  none
attr source  packetSentToLower
attr title  "packets sent to lower layer, count"
scalar HandoverNetwork.ap2.wlan[1].mac 	sentDownPk:sum(packetBytes) 	924
attr interpolationmode  none
attr source  packetSentToLower
attr title  "packets sent to lower layer, sum(packetBytes)"
statistic HandoverNetwork.ap2.wlan[1].radio 	symbolErrorRate:histogram
field count 0
field mean nan
field stddev nan
field sum 0
field sqrsum 0
field min nan
field max nan
attr source  symbolErrorRate
attr title  "Symbol error rate, histogram"
bin	-INF	0
bin	-0.5	0
bin	-0.46666666666667	0
bin	-0.43333333333333	0
bin	-0.4	0
bin	-0.36666666666667	0
bin	-0.33333333333333	0
bin	-0.3	0
bin	-0.26666666666667	0
bin	-0.23333333333333	0
bin	-0.2	0
bin	-0.16666666666667	0
bin	-0.13333333333333	0
bin	-0.1	0
bin	-0.066666666666667	0
bin	-0.033333333333333	0
bin	-6.9388939039072e-018	0
bin	0.033333333333333	0
bin	0.066666666666667	0
bin	0.1	0
bin	0.13333333333333	0
bin	0.16666666666667	0
bin	0.2	0
bin	0.23333333333333	0
bin	0.26666666666667	0
bin	0.3	0
bin	0.33333333333333	0
bin	0.36666666666667	0
bin	0.4	0
bin	0.43333333333333	0
bin	0.46666666666667	0
bin	0.5	0
statistic HandoverNetwork.ap2.wlan[1].radio 	bitErrorRate:histogram
field count 0
field mean nan
field stddev nan
field sum 0
field sqrsum 0
field min nan
field max nan
attr source  bitErrorRate
attr title  "Bit error rate, histogram"
bin	-INF	0
bin	-0.5	0
bin	-0.46666666666667	0
bin	-0.43333333333333	0
bin	-0.4	0
bin	-0.36666666666667	0
bin	-0.33333333333333	0
bin	-0.3	0
bin	-0.26666666666667	0
bin	-0.23333333333333	0
bin	-0.2	0
bin	-0.16666666666667	0
bin	-0.13333333333333	0
bin	-0.1	0
bin	-0.066666666666667	0
bin	-0.033333333333333	0
bin	-6.9388939039072e-018	0
bin	0.033333333333333	0
bin	0.066666666666667	0
bin	0.1	0
bin	0.13333333333333	0
bin	0.16666666666667	0
bin	0.2	0
bin	0.23333333333333	0
bin	0.26666666666667	0
bin	0.3	0
bin	0.33333333333333	0
bin	0.36666666666667	0
bin	0.4	0
bin	0.43333333333333	0
bin	0.46666666666667	0
bin	0.5	0
statistic HandoverNetwork.ap2.wlan[1].radio 	packetErrorRate:histogram
field count 22
field mean 0
field stddev 0
field sum 0
field sqrsum 0
field min 0
field max 0
attr source  packetErrorRate
attr title  "Packet error rate, histogram"
bin	-INF	0
bin	-0.5	0
bin	-0.46666666666667	0
bin	-0.43333333333333	0
bin	-0.4	0
bin	-0.36666666666667	0
bin	-0.33333333333333	0
bin	-0.3	0
bin	-0.26666666666667	0
bin	-0.23333333333333	0
bin	-0.2	0
bin	-0.16666666666667	0
bin	-0.13333333333333	0
bin	-0.1	0
bin	-0.066666666666667	0
bin	-0.033333333333333	0
bin	-6.9388939039072e-018	22
bin	0.033333333333333	0
bin	0.066666666666667	0
bin	0.1	0
bin	0.13333333333333	0
bin	0.16666666666667	0
bin	0.2	0
bin	0.23333333333333	0
bin	0.26666666666667	0
bin	0.3	0
bin	0.33333333333333	0
bin	0.36666666666667	0
bin	0.4	0
bin	0.43333333333333	0
bin	0.46666666666667	0
bin	0.5	0
statistic HandoverNetwork.ap2.wlan[1].radio 	minSNIR:histogram
field count 22
field mean 172727273614.79
field stddev 70250015045.333
field sum 3800000019525.3
field sqrsum 7.6e+023
field min 6506.7223835972
field max 200000000000
attr source  minSNIR
attr title  "Min SNIR, histogram"
bin	-INF	0
bin	-99999990239.916	0
bin	-86666657340.365	0
bin	-73333324440.813	0
bin	-59999991541.261	0
bin	-46666658641.709	0
bin	-33333325742.157	0
bin	-19999992842.605	0
bin	-6666659943.0535	3
bin	6666672956.4983	0
bin	20000005856.05	0
bin	33333338755.602	0
bin	46666671655.154	0
bin	60000004554.706	0
bin	73333337454.257	0
bin	86666670353.809	0
bin	100000003253.36	0
bin	113333336152.91	0
bin	126666669052.46	0
bin	140000001952.02	0
bin	153333334851.57	0
bin	166666667751.12	0
bin	180000000650.67	0
bin	193333333550.22	19
bin	206666666449.78	0
bin	219999999349.33	0
bin	233333332248.88	0
bin	246666665148.43	0
bin	259999998047.98	0
bin	273333330947.54	0
bin	286666663847.09	0
bin	299999996746.64	0
scalar HandoverNetwork.ap2.wlan[1].radio 	transmissionState:count 	76
attr interpolationmode  sample-hold
attr source  transmissionStateChanged
attr title  "Radio transmission state, count"
scalar HandoverNetwork.ap2.wlan[1].radio 	receptionState:count 	83
attr interpolationmode  sample-hold
attr source  receptionStateChanged
attr title  "Radio reception state, count"
scalar HandoverNetwork.ap2.wlan[1].radio 	radioMode:count 	40
attr interpolationmode  sample-hold
attr source  radioModeChanged
attr title  "Radio mode, count"
statistic HandoverNetwork.ap2.wlan[1].radio 	radioChannel:histogram
field count 1
field mean 3
field stddev nan
field sum 3
field sqrsum 9
field min 3
field max 3
attr interpolationmode  sample-hold
attr source  radioChannelChanged
attr title  "Radio channel, histogram"
bin	-INF	0
bin	2	0
bin	3	1
bin	4	0
scalar HandoverNetwork.radioMedium.propagation 	"Arrival computation count" 	29120
scalar HandoverNetwork.radioMedium 	"transmission count" 	728
scalar HandoverNetwork.radioMedium 	"radio frame send count" 	29120
scalar HandoverNetwork.radioMedium 	"reception computation count" 	29120
scalar HandoverNetwork.radioMedium 	"interference computation count" 	87922
scalar HandoverNetwork.radioMedium 	"reception decision computation count" 	2174
scalar HandoverNetwork.radioMedium 	"listening decision computation count" 	56647
scalar HandoverNetwork.radioMedium 	"reception cache hit" 	76.698221158847
attr unit  %
scalar HandoverNetwork.radioMedium 	"interference cache hit" 	66.666666666667
attr unit  %
scalar HandoverNetwork.radioMedium 	"noise cache hit" 	0
attr unit  %
scalar HandoverNetwork.radioMedium 	"snir cache hit" 	50
attr unit  %
scalar HandoverNetwork.radioMedium 	"reception decision cache hit" 	50
attr unit  %
scalar HandoverNetwork.radioMedium 	"reception result cache hit" 	0
attr unit  %
scalar HandoverNetwork.ap3.relayUnit 	"number of received BPDUs from STP module" 	0
scalar HandoverNetwork.ap3.relayUnit 	"number of received frames from network (including BPDUs)" 	0
scalar HandoverNetwork.ap3.relayUnit 	"number of dropped frames (including BPDUs)" 	0
scalar HandoverNetwork.ap3.relayUnit 	"number of delivered BPDUs to the STP module" 	0
scalar HandoverNetwork.ap3.relayUnit 	"number of dispatched BPDU frames to the network" 	0
scalar HandoverNetwork.ap3.relayUnit 	"number of dispatched non-BDPU frames to the network" 	0
scalar HandoverNetwork.ap3.wlan[0].mac.statistics 	numReceivedUnicast 	0
scalar HandoverNetwork.ap3.wlan[0].mac.statistics 	numReceivedBroadcast 	18
scalar HandoverNetwork.ap3.wlan[0].mac.statistics 	numReceivedMulticast 	0
scalar HandoverNetwork.ap3.wlan[0].mac.statistics 	numReceivedNotForUs 	0
scalar HandoverNetwork.ap3.wlan[0].mac.statistics 	numReceivedErroneous 	0
scalar HandoverNetwork.ap3.wlan[0].mac 	rcvdPkFromHL:count 	18
attr interpolationmode  none
attr source  packetReceivedFromUpper
attr title  "packets received from higher layer, count"
scalar HandoverNetwork.ap3.wlan[0].mac 	rcvdPkFromHL:sum(packetBytes) 	864
attr interpolationmode  none
attr source  packetReceivedFromUpper
attr title  "packets received from higher layer, sum(packetBytes)"
scalar HandoverNetwork.ap3.wlan[0].mac 	passedUpPk:count 	18
attr interpolationmode  none
attr source  packetSentToUpper
attr title  "packets passed to higher layer, count"
scalar HandoverNetwork.ap3.wlan[0].mac 	passedUpPk:sum(packetBytes) 	864
attr interpolationmode  none
attr source  packetSentToUpper
attr title  "packets passed to higher layer, sum(packetBytes)"
scalar HandoverNetwork.ap3.wlan[0].mac 	rcvdPkFromLL:count 	18
attr interpolationmode  none
attr source  packetReceivedFromLower
attr title  "packets received from lower layer, count"
scalar HandoverNetwork.ap3.wlan[0].mac 	rcvdPkFromLL:sum(packetBytes) 	864
attr interpolationmode  none
attr source  packetReceivedFromLower
attr title  "packets received from lower layer, sum(packetBytes)"
scalar HandoverNetwork.ap3.wlan[0].mac 	sentDownPk:count 	18
attr interpolationmode  none
attr source  packetSentToLower
attr title  "packets sent to lower layer, count"
scalar HandoverNetwork.ap3.wlan[0].mac 	sentDownPk:sum(packetBytes) 	864
attr interpolationmode  none
attr source  packetSentToLower
attr title  "packets sent to lower layer, sum(packetBytes)"
statistic HandoverNetwork.ap3.wlan[0].radio 	symbolErrorRate:histogram
field count 0
field mean nan
field stddev nan
field sum 0
field sqrsum 0
field min nan
field max nan
attr source  symbolErrorRate
attr title  "Symbol error rate, histogram"
bin	-INF	0
bin	-0.5	0
bin	-0.46666666666667	0
bin	-0.43333333333333	0
bin	-0.4	0
bin	-0.36666666666667	0
bin	-0.33333333333333	0
bin	-0.3	0
bin	-0.26666666666667	0
bin	-0.23333333333333	0
bin	-0.2	0
bin	-0.16666666666667	0
bin	-0.13333333333333	0
bin	-0.1	0
bin	-0.066666666666667	0
bin	-0.033333333333333	0
bin	-6.9388939039072e-018	0
bin	0.033333333333333	0
bin	0.066666666666667	0
bin	0.1	0
bin	0.13333333333333	0
bin	0.16666666666667	0
bin	0.2	0
bin	0.23333333333333	0
bin	0.26666666666667	0
bin	0.3	0
bin	0.33333333333333	0
bin	0.36666666666667	0
bin	0.4	0
bin	0.43333333333333	0
bin	0.46666666666667	0
bin	0.5	0
statistic HandoverNetwork.ap3.wlan[0].radio 	bitErrorRate:histogram
field count 0
field mean nan
field stddev nan
field sum 0
field sqrsum 0
field min nan
field max nan
attr source  bitErrorRate
attr title  "Bit error rate, histogram"
bin	-INF	0
bin	-0.5	0
bin	-0.46666666666667	0
bin	-0.43333333333333	0
bin	-0.4	0
bin	-0.36666666666667	0
bin	-0.33333333333333	0
bin	-0.3	0
bin	-0.26666666666667	0
bin	-0.23333333333333	0
bin	-0.2	0
bin	-0.16666666666667	0
bin	-0.13333333333333	0
bin	-0.1	0
bin	-0.066666666666667	0
bin	-0.033333333333333	0
bin	-6.9388939039072e-018	0
bin	0.033333333333333	0
bin	0.066666666666667	0
bin	0.1	0
bin	0.13333333333333	0
bin	0.16666666666667	0
bin	0.2	0
bin	0.23333333333333	0
bin	0.26666666666667	0
bin	0.3	0
bin	0.33333333333333	0
bin	0.36666666666667	0
bin	0.4	0
bin	0.43333333333333	0
bin	0.46666666666667	0
bin	0.5	0
statistic HandoverNetwork.ap3.wlan[0].radio 	packetErrorRate:histogram
field count 18
field mean 0
field stddev 0
field sum 0
field sqrsum 0
field min 0
field max 0
attr source  packetErrorRate
attr title  "Packet error rate, histogram"
bin	-INF	0
bin	-0.5	0
bin	-0.46666666666667	0
bin	-0.43333333333333	0
bin	-0.4	0
bin	-0.36666666666667	0
bin	-0.33333333333333	0
bin	-0.3	0
bin	-0.26666666666667	0
bin	-0.23333333333333	0
bin	-0.2	0
bin	-0.16666666666667	0
bin	-0.13333333333333	0
bin	-0.1	0
bin	-0.066666666666667	0
bin	-0.033333333333333	0
bin	-6.9388939039072e-018	18
bin	0.033333333333333	0
bin	0.066666666666667	0
bin	0.1	0
bin	0.13333333333333	0
bin	0.16666666666667	0
bin	0.2	0
bin	0.23333333333333	0
bin	0.26666666666667	0
bin	0.3	0
bin	0.33333333333333	0
bin	0.36666666666667	0
bin	0.4	0
bin	0.43333333333333	0
bin	0.46666666666667	0
bin	0.5	0
statistic HandoverNetwork.ap3.wlan[0].radio 	minSNIR:histogram
field count 18
field mean 200000000000
field stddev 0
field sum 3600000000000
field sqrsum 7.2e+023
field min 200000000000
field max 200000000000
attr source  minSNIR
attr title  "Min SNIR, histogram"
bin	-INF	0
bin	199999999999	0
bin	200000000000	18
bin	200000000001	0
scalar HandoverNetwork.ap3.wlan[0].radio 	transmissionState:count 	72
attr interpolationmode  sample-hold
attr source  transmissionStateChanged
attr title  "Radio transmission state, count"
scalar HandoverNetwork.ap3.wlan[0].radio 	receptionState:count 	73
attr interpolationmode  sample-hold
attr source  receptionStateChanged
attr title  "Radio reception state, count"
scalar HandoverNetwork.ap3.wlan[0].radio 	radioMode:count 	38
attr interpolationmode  sample-hold
attr source  radioModeChanged
attr title  "Radio mode, count"
statistic HandoverNetwork.ap3.wlan[0].radio 	radioChannel:histogram
field count 1
field mean 6
field stddev nan
field sum 6
field sqrsum 36
field min 6
field max 6
attr interpolationmode  sample-hold
attr source  radioChannelChanged
attr title  "Radio channel, histogram"
bin	-INF	0
bin	5	0
bin	6	1
bin	7	0
scalar HandoverNetwork.ap3.wlan[1].mac.statistics 	numReceivedUnicast 	0
scalar HandoverNetwork.ap3.wlan[1].mac.statistics 	numReceivedBroadcast 	18
scalar HandoverNetwork.ap3.wlan[1].mac.statistics 	numReceivedMulticast 	0
scalar HandoverNetwork.ap3.wlan[1].mac.statistics 	numReceivedNotForUs 	0
scalar HandoverNetwork.ap3.wlan[1].mac.statistics 	numReceivedErroneous 	0
scalar HandoverNetwork.ap3.wlan[1].mac 	rcvdPkFromHL:count 	18
attr interpolationmode  none
attr source  packetReceivedFromUpper
attr title  "packets received from higher layer, count"
scalar HandoverNetwork.ap3.wlan[1].mac 	rcvdPkFromHL:sum(packetBytes) 	864
attr interpolationmode  none
attr source  packetReceivedFromUpper
attr title  "packets received from higher layer, sum(packetBytes)"
scalar HandoverNetwork.ap3.wlan[1].mac 	passedUpPk:count 	18
attr interpolationmode  none
attr source  packetSentToUpper
attr title  "packets passed to higher layer, count"
scalar HandoverNetwork.ap3.wlan[1].mac 	passedUpPk:sum(packetBytes) 	864
attr interpolationmode  none
attr source  packetSentToUpper
attr title  "packets passed to higher layer, sum(packetBytes)"
scalar HandoverNetwork.ap3.wlan[1].mac 	rcvdPkFromLL:count 	18
attr interpolationmode  none
attr source  packetReceivedFromLower
attr title  "packets received from lower layer, count"
scalar HandoverNetwork.ap3.wlan[1].mac 	rcvdPkFromLL:sum(packetBytes) 	864
attr interpolationmode  none
attr source  packetReceivedFromLower
attr title  "packets received from lower layer, sum(packetBytes)"
scalar HandoverNetwork.ap3.wlan[1].mac 	sentDownPk:count 	18
attr interpolationmode  none
attr source  packetSentToLower
attr title  "packets sent to lower layer, count"
scalar HandoverNetwork.ap3.wlan[1].mac 	sentDownPk:sum(packetBytes) 	864
attr interpolationmode  none
attr source  packetSentToLower
attr title  "packets sent to lower layer, sum(packetBytes)"
statistic HandoverNetwork.ap3.wlan[1].radio 	symbolErrorRate:histogram
field count 0
field mean nan
field stddev nan
field sum 0
field sqrsum 0
field min nan
field max nan
attr source  symbolErrorRate
attr title  "Symbol error rate, histogram"
bin	-INF	0
bin	-0.5	0
bin	-0.46666666666667	0
bin	-0.43333333333333	0
bin	-0.4	0
bin	-0.36666666666667	0
bin	-0.33333333333333	0
bin	-0.3	0
bin	-0.26666666666667	0
bin	-0.23333333333333	0
bin	-0.2	0
bin	-0.16666666666667	0
bin	-0.13333333333333	0
bin	-0.1	0
bin	-0.066666666666667	0
bin	-0.033333333333333	0
bin	-6.9388939039072e-018	0
bin	0.033333333333333	0
bin	0.066666666666667	0
bin	0.1	0
bin	0.13333333333333	0
bin	0.16666666666667	0
bin	0.2	0
bin	0.23333333333333	0
bin	0.26666666666667	0
bin	0.3	0
bin	0.33333333333333	0
bin	0.36666666666667	0
bin	0.4	0
bin	0.43333333333333	0
bin	0.46666666666667	0
bin	0.5	0
statistic HandoverNetwork.ap3.wlan[1].radio 	bitErrorRate:histogram
field count 0
field mean nan
field stddev nan
field sum 0
field sqrsum 0
field min nan
field max nan
attr source  bitErrorRate
attr title  "Bit error rate, histogram"
bin	-INF	0
bin	-0.5	0
bin	-0.46666666666667	0
bin	-0.43333333333333	0
bin	-0.4	0
bin	-0.36666666666667	0
bin	-0.33333333333333	0
bin	-0.3	0
bin	-0.26666666666667	0
bin	-0.23333333333333	0
bin	-0.2	0
bin	-0.16666666666667	0
bin	-0.13333333333333	0
bin	-0.1	0
bin	-0.066666666666667	0
bin	-0.033333333333333	0
bin	-6.9388939039072e-018	0
bin	0.033333333333333	0
bin	0.066666666666667	0
bin	0.1	0
bin	0.13333333333333	0
bin	0.16666666666667	0
bin	0.2	0
bin	0.23333333333333	0
bin	0.26666666666667	0
bin	0.3	0
bin	0.33333333333333	0
bin	0.36666666666667	0
bin	0.4	0
bin	0.43333333333333	0
bin	0.46666666666667	0
bin	0.5	0
statistic HandoverNetwork.ap3.wlan[1].radio 	packetErrorRate:histogram
field count 18
field mean 0
field stddev 0
field sum 0
field sqrsum 0
field min 0
field max 0
attr source  packetErrorRate
attr title  "Packet error rate, histogram"
bin	-INF	0
bin	-0.5	0
bin	-0.46666666666667	0
bin	-0.43333333333333	0
bin	-0.4	0
bin	-0.36666666666667	0
bin	-0.33333333333333	0
bin	-0.3	0
bin	-0.26666666666667	0
bin	-0.23333333333333	0
bin	-0.2	0
bin	-0.16666666666667	0
bin	-0.13333333333333	0
bin	-0.1	0
bin	-0.066666666666667	0
bin	-0.033333333333333	0
bin	-6.9388939039072e-018	18
bin	0.033333333333333	0
bin	0.066666666666667	0
bin	0.1	0
bin	0.13333333333333	0
bin	0.16666666666667	0
bin	0.2	0
bin	0.23333333333333	0
bin	0.26666666666667	0
bin	0.3	0
bin	0.33333333333333	0
bin	0.36666666666667	0
bin	0.4	0
bin	0.43333333333333	0
bin	0.46666666666667	0
bin	0.5	0
statistic HandoverNetwork.ap3.wlan[1].radio 	minSNIR:histogram
field count 18
field mean 200000000000
field stddev 0
field sum 3600000000000
field sqrsum 7.2e+023
field min 200000000000
field max 200000000000
attr source  minSNIR
attr title  "Min SNIR, histogram"
bin	-INF	0
bin	199999999999	0
bin	200000000000	18
bin	200000000001	0
scalar HandoverNetwork.ap3.wlan[1].radio 	transmissionState:count 	72
attr interpolationmode  sample-hold
attr source  transmissionStateChanged
attr title  "Radio transmission state, count"
scalar HandoverNetwork.ap3.wlan[1].radio 	receptionState:count 	73
attr interpolationmode  sample-hold
attr source  receptionStateChanged
attr title  "Radio reception state, count"
scalar HandoverNetwork.ap3.wlan[1].radio 	radioMode:count 	38
attr interpolationmode  sample-hold
attr source  radioModeChanged
attr title  "Radio mode, count"
statistic HandoverNetwork.ap3.wlan[1].radio 	radioChannel:histogram
field count 1
field mean 6
field stddev nan
field sum 6
field sqrsum 36
field min 6
field max 6
attr interpolationmode  sample-hold
attr source  radioChannelChanged
attr title  "Radio channel, histogram"
bin	-INF	0
bin	5	0
bin	6	1
bin	7	0
scalar HandoverNetwork.ap4.relayUnit 	"number of received BPDUs from STP module" 	0
scalar HandoverNetwork.ap4.relayUnit 	"number of received frames from network (including BPDUs)" 	0
scalar HandoverNetwork.ap4.relayUnit 	"number of dropped frames (including BPDUs)" 	0
scalar HandoverNetwork.ap4.relayUnit 	"number of delivered BPDUs to the STP module" 	0
scalar HandoverNetwork.ap4.relayUnit 	"number of dispatched BPDU frames to the network" 	0
scalar HandoverNetwork.ap4.relayUnit 	"number of dispatched non-BDPU frames to the network" 	0
scalar HandoverNetwork.ap4.wlan[0].mac.statistics 	numReceivedUnicast 	0
scalar HandoverNetwork.ap4.wlan[0].mac.statistics 	numReceivedBroadcast 	17
scalar HandoverNetwork.ap4.wlan[0].mac.statistics 	numReceivedMulticast 	0
scalar HandoverNetwork.ap4.wlan[0].mac.statistics 	numReceivedNotForUs 	0
scalar HandoverNetwork.ap4.wlan[0].mac.statistics 	numReceivedErroneous 	0
scalar HandoverNetwork.ap4.wlan[0].mac 	rcvdPkFromHL:count 	18
attr interpolationmode  none
attr source  packetReceivedFromUpper
attr title  "packets received from higher layer, count"
scalar HandoverNetwork.ap4.wlan[0].mac 	rcvdPkFromHL:sum(packetBytes) 	864
attr interpolationmode  none
attr source  packetReceivedFromUpper
attr title  "packets received from higher layer, sum(packetBytes)"
scalar HandoverNetwork.ap4.wlan[0].mac 	passedUpPk:count 	17
attr interpolationmode  none
attr source  packetSentToUpper
attr title  "packets passed to higher layer, count"
scalar HandoverNetwork.ap4.wlan[0].mac 	passedUpPk:sum(packetBytes) 	816
attr interpolationmode  none
attr source  packetSentToUpper
attr title  "packets passed to higher layer, sum(packetBytes)"
scalar HandoverNetwork.ap4.wlan[0].mac 	rcvdPkFromLL:count 	17
attr interpolationmode  none
attr source  packetReceivedFromLower
attr title  "packets received from lower layer, count"
scalar HandoverNetwork.ap4.wlan[0].mac 	rcvdPkFromLL:sum(packetBytes) 	816
attr interpolationmode  none
attr source  packetReceivedFromLower
attr title  "packets received from lower layer, sum(packetBytes)"
scalar HandoverNetwork.ap4.wlan[0].mac 	sentDownPk:count 	18
attr interpolationmode  none
attr source  packetSentToLower
attr title  "packets sent to lower layer, count"
scalar HandoverNetwork.ap4.wlan[0].mac 	sentDownPk:sum(packetBytes) 	864
attr interpolationmode  none
attr source  packetSentToLower
attr title  "packets sent to lower layer, sum(packetBytes)"
statistic HandoverNetwork.ap4.wlan[0].radio 	symbolErrorRate:histogram
field count 0
field mean nan
field stddev nan
field sum 0
field sqrsum 0
field min nan
field max nan
attr source  symbolErrorRate
attr title  "Symbol error rate, histogram"
bin	-INF	0
bin	-0.5	0
bin	-0.46666666666667	0
bin	-0.43333333333333	0
bin	-0.4	0
bin	-0.36666666666667	0
bin	-0.33333333333333	0
bin	-0.3	0
bin	-0.26666666666667	0
bin	-0.23333333333333	0
bin	-0.2	0
bin	-0.16666666666667	0
bin	-0.13333333333333	0
bin	-0.1	0
bin	-0.066666666666667	0
bin	-0.033333333333333	0
bin	-6.9388939039072e-018	0
bin	0.033333333333333	0
bin	0.066666666666667	0
bin	0.1	0
bin	0.13333333333333	0
bin	0.16666666666667	0
bin	0.2	0
bin	0.23333333333333	0
bin	0.26666666666667	0
bin	0.3	0
bin	0.33333333333333	0
bin	0.36666666666667	0
bin	0.4	0
bin	0.43333333333333	0
bin	0.46666666666667	0
bin	0.5	0
statistic HandoverNetwork.ap4.wlan[0].radio 	bitErrorRate:histogram
field count 0
field mean nan
field stddev nan
field sum 0
field sqrsum 0
field min nan
field max nan
attr source  bitErrorRate
attr title  "Bit error rate, histogram"
bin	-INF	0
bin	-0.5	0
bin	-0.46666666666667	0
bin	-0.43333333333333	0
bin	-0.4	0
bin	-0.36666666666667	0
bin	-0.33333333333333	0
bin	-0.3	0
bin	-0.26666666666667	0
bin	-0.23333333333333	0
bin	-0.2	0
bin	-0.16666666666667	0
bin	-0.13333333333333	0
bin	-0.1	0
bin	-0.066666666666667	0
bin	-0.033333333333333	0
bin	-6.9388939039072e-018	0
bin	0.033333333333333	0
bin	0.066666666666667	0
bin	0.1	0
bin	0.13333333333333	0
bin	0.16666666666667	0
bin	0.2	0
bin	0.23333333333333	0
bin	0.26666666666667	0
bin	0.3	0
bin	0.33333333333333	0
bin	0.36666666666667	0
bin	0.4	0
bin	0.43333333333333	0
bin	0.46666666666667	0
bin	0.5	0
statistic HandoverNetwork.ap4.wlan[0].radio 	packetErrorRate:histogram
field count 17
field mean 0
field stddev 0
field sum 0
field sqrsum 0
field min 0
field max 0
attr source  packetErrorRate
attr title  "Packet error rate, histogram"
bin	-INF	0
bin	-0.5	0
bin	-0.46666666666667	0
bin	-0.43333333333333	0
bin	-0.4	0
bin	-0.36666666666667	0
bin	-0.33333333333333	0
bin	-0.3	0
bin	-0.26666666666667	0
bin	-0.23333333333333	0
bin	-0.2	0
bin	-0.16666666666667	0
bin	-0.13333333333333	0
bin	-0.1	0
bin	-0.066666666666667	0
bin	-0.033333333333333	0
bin	-6.9388939039072e-018	17
bin	0.033333333333333	0
bin	0.066666666666667	0
bin	0.1	0
bin	0.13333333333333	0
bin	0.16666666666667	0
bin	0.2	0
bin	0.23333333333333	0
bin	0.26666666666667	0
bin	0.3	0
bin	0.33333333333333	0
bin	0.36666666666667	0
bin	0.4	0
bin	0.43333333333333	0
bin	0.46666666666667	0
bin	0.5	0
statistic HandoverNetwork.ap4.wlan[0].radio 	minSNIR:histogram
field count 17
field mean 200000000000
field stddev 0
field sum 3400000000000
field sqrsum 6.8e+023
field min 200000000000
field max 200000000000
attr source  minSNIR
attr title  "Min SNIR, histogram"
bin	-INF	0
bin	199999999999	0
bin	200000000000	17
bin	200000000001	0
scalar HandoverNetwork.ap4.wlan[0].radio 	transmissionState:count 	72
attr interpolationmode  sample-hold
attr source  transmissionStateChanged
attr title  "Radio transmission state, count"
scalar HandoverNetwork.ap4.wlan[0].radio 	receptionState:count 	71
attr interpolationmode  sample-hold
attr source  receptionStateChanged
attr title  "Radio reception state, count"
scalar HandoverNetwork.ap4.wlan[0].radio 	radioMode:count 	38
attr interpolationmode  sample-hold
attr source  radioModeChanged
attr title  "Radio mode, count"
statistic HandoverNetwork.ap4.wlan[0].radio 	radioChannel:histogram
field count 1
field mean 11
field stddev nan
field sum 11
field sqrsum 121
field min 11
field max 11
attr interpolationmode  sample-hold
attr source  radioChannelChanged
attr title  "Radio channel, histogram"
bin	-INF	0
bin	10	0
bin	11	1
bin	12	0
scalar HandoverNetwork.ap4.wlan[1].mac.statistics 	numReceivedUnicast 	0
scalar HandoverNetwork.ap4.wlan[1].mac.statistics 	numReceivedBroadcast 	18
scalar HandoverNetwork.ap4.wlan[1].mac.statistics 	numReceivedMulticast 	0
scalar HandoverNetwork.ap4.wlan[1].mac.statistics 	numReceivedNotForUs 	0
scalar HandoverNetwork.ap4.wlan[1].mac.statistics 	numReceivedErroneous 	0
scalar HandoverNetwork.ap4.wlan[1].mac 	rcvdPkFromHL:count 	17
attr interpolationmode  none
attr source  packetReceivedFromUpper
attr title  "packets received from higher layer, count"
scalar HandoverNetwork.ap4.wlan[1].mac 	rcvdPkFromHL:sum(packetBytes) 	816
attr interpolationmode  none
attr source  packetReceivedFromUpper
attr title  "packets received from higher layer, sum(packetBytes)"
scalar HandoverNetwork.ap4.wlan[1].mac 	passedUpPk:count 	18
attr interpolationmode  none
attr source  packetSentToUpper
attr title  "packets passed to higher layer, count"
scalar HandoverNetwork.ap4.wlan[1].mac 	passedUpPk:sum(packetBytes) 	864
attr interpolationmode  none
attr source  packetSentToUpper
attr title  "packets passed to higher layer, sum(packetBytes)"
scalar HandoverNetwork.ap4.wlan[1].mac 	rcvdPkFromLL:count 	18
attr interpolationmode  none
attr source  packetReceivedFromLower
attr title  "packets received from lower layer, count"
scalar HandoverNetwork.ap4.wlan[1].mac 	rcvdPkFromLL:sum(packetBytes) 	864
attr interpolationmode  none
attr source  packetReceivedFromLower
attr title  "packets received from lower layer, sum(packetBytes)"
scalar HandoverNetwork.ap4.wlan[1].mac 	sentDownPk:count 	17
attr interpolationmode  none
attr source  packetSentToLower
attr title  "packets sent to lower layer, count"
scalar HandoverNetwork.ap4.wlan[1].mac 	sentDownPk:sum(packetBytes) 	816
attr interpolationmode  none
attr source  packetSentToLower
attr title  "packets sent to lower layer, sum(packetBytes)"
statistic HandoverNetwork.ap4.wlan[1].radio 	symbolErrorRate:histogram
field count 0
field mean nan
field stddev nan
field sum 0
field sqrsum 0
field min nan
field max nan
attr source  symbolErrorRate
attr title  "Symbol error rate, histogram"
bin	-INF	0
bin	-0.5	0
bin	-0.46666666666667	0
bin	-0.43333333333333	0
bin	-0.4	0
bin	-0.36666666666667	0
bin	-0.33333333333333	0
bin	-0.3	0
bin	-0.26666666666667	0
bin	-0.23333333333333	0
bin	-0.2	0
bin	-0.16666666666667	0
bin	-0.13333333333333	0
bin	-0.1	0
bin	-0.066666666666667	0
bin	-0.033333333333333	0
bin	-6.9388939039072e-018	0
bin	0.033333333333333	0
bin	0.066666666666667	0
bin	0.1	0
bin	0.13333333333333	0
bin	0.16666666666667	0
bin	0.2	0
bin	0.23333333333333	0
bin	0.26666666666667	0
bin	0.3	0
bin	0.33333333333333	0
bin	0.36666666666667	0
bin	0.4	0
bin	0.43333333333333	0
bin	0.46666666666667	0
bin	0.5	0
statistic HandoverNetwork.ap4.wlan[1].radio 	bitErrorRate:histogram
field count 0
field mean nan
field stddev nan
field sum 0
field sqrsum 0
field min nan
field max nan
attr source  bitErrorRate
attr title  "Bit error rate, histogram"
bin	-INF	0
bin	-0.5	0
bin	-0.46666666666667	0
bin	-0.43333333333333	0
bin	-0.4	0
bin	-0.36666666666667	0
bin	-0.33333333333333	0
bin	-0.3	0
bin	-0.26666666666667	0
bin	-0.23333333333333	0
bin	-0.2	0
bin	-0.16666666666667	0
bin	-0.13333333333333	0
bin	-0.1	0
bin	-0.066666666666667	0
bin	-0.033333333333333	0
bin	-6.9388939039072e-018	0
bin	0.033333333333333	0
bin	0.066666666666667	0
bin	0.1	0
bin	0.13333333333333	0
bin	0.16666666666667	0
bin	0.2	0
bin	0.23333333333333	0
bin	0.26666666666667	0
bin	0.3	0
bin	0.33333333333333	0
bin	0.36666666666667	0
bin	0.4	0
bin	0.43333333333333	0
bin	0.46666666666667	0
bin	0.5	0
statistic HandoverNetwork.ap4.wlan[1].radio 	packetErrorRate:histogram
field count 18
field mean 0
field stddev 0
field sum 0
field sqrsum 0
field min 0
field max 0
attr source  packetErrorRate
attr title  "Packet error rate, histogram"
bin	-INF	0
bin	-0.5	0
bin	-0.46666666666667	0
bin	-0.43333333333333	0
bin	-0.4	0
bin	-0.36666666666667	0
bin	-0.33333333333333	0
bin	-0.3	0
bin	-0.26666666666667	0
bin	-0.23333333333333	0
bin	-0.2	0
bin	-0.16666666666667	0
bin	-0.13333333333333	0
bin	-0.1	0
bin	-0.066666666666667	0
bin	-0.033333333333333	0
bin	-6.9388939039072e-018	18
bin	0.033333333333333	0
bin	0.066666666666667	0
bin	0.1	0
bin	0.13333333333333	0
bin	0.16666666666667	0
bin	0.2	0
bin	0.23333333333333	0
bin	0.26666666666667	0
bin	0.3	0
bin	0.33333333333333	0
bin	0.36666666666667	0
bin	0.4	0
bin	0.43333333333333	0
bin	0.46666666666667	0
bin	0.5	0
statistic HandoverNetwork.ap4.wlan[1].radio 	minSNIR:histogram
field count 18
field mean 200000000000
field stddev 0
field sum 3600000000000
field sqrsum 7.2e+023
field min 200000000000
field max 200000000000
attr source  minSNIR
attr title  "Min SNIR, histogram"
bin	-INF	0
bin	199999999999	0
bin	200000000000	18
bin	200000000001	0
scalar HandoverNetwork.ap4.wlan[1].radio 	transmissionState:count 	68
attr interpolationmode  sample-hold
attr source  transmissionStateChanged
attr title  "Radio transmission state, count"
scalar HandoverNetwork.ap4.wlan[1].radio 	receptionState:count 	71
attr interpolationmode  sample-hold
attr source  receptionStateChanged
attr title  "Radio reception state, count"
scalar HandoverNetwork.ap4.wlan[1].radio 	radioMode:count 	36
attr interpolationmode  sample-hold
attr source  radioModeChanged
attr title  "Radio mode, count"
statistic HandoverNetwork.ap4.wlan[1].radio 	radioChannel:histogram
field count 1
field mean 11
field stddev nan
field sum 11
field sqrsum 121
field min 11
field max 11
attr interpolationmode  sample-hold
attr source  radioChannelChanged
attr title  "Radio channel, histogram"
bin	-INF	0
bin	10	0
bin	11	1
bin	12	0
scalar HandoverNetwork.ap5.relayUnit 	"number of received BPDUs from STP module" 	0
scalar HandoverNetwork.ap5.relayUnit 	"number of received frames from network (including BPDUs)" 	0
scalar HandoverNetwork.ap5.relayUnit 	"number of dropped frames (including BPDUs)" 	0
scalar HandoverNetwork.ap5.relayUnit 	"number of delivered BPDUs to the STP module" 	0
scalar HandoverNetwork.ap5.relayUnit 	"number of dispatched BPDU frames to the network" 	0
scalar HandoverNetwork.ap5.relayUnit 	"number of dispatched non-BDPU frames to the network" 	0
scalar HandoverNetwork.ap5.wlan[0].mac.statistics 	numReceivedUnicast 	0
scalar HandoverNetwork.ap5.wlan[0].mac.statistics 	numReceivedBroadcast 	90
scalar HandoverNetwork.ap5.wlan[0].mac.statistics 	numReceivedMulticast 	0
scalar HandoverNetwork.ap5.wlan[0].mac.statistics 	numReceivedNotForUs 	0
scalar HandoverNetwork.ap5.wlan[0].mac.statistics 	numReceivedErroneous 	0
scalar HandoverNetwork.ap5.wlan[0].mac 	rcvdPkFromHL:count 	17
attr interpolationmode  none
attr source  packetReceivedFromUpper
attr title  "packets received from higher layer, count"
scalar HandoverNetwork.ap5.wlan[0].mac 	rcvdPkFromHL:sum(packetBytes) 	816
attr interpolationmode  none
attr source  packetReceivedFromUpper
attr title  "packets received from higher layer, sum(packetBytes)"
scalar HandoverNetwork.ap5.wlan[0].mac 	passedUpPk:count 	90
attr interpolationmode  none
attr source  packetSentToUpper
attr title  "packets passed to higher layer, count"
scalar HandoverNetwork.ap5.wlan[0].mac 	passedUpPk:sum(packetBytes) 	4320
attr interpolationmode  none
attr source  packetSentToUpper
attr title  "packets passed to higher layer, sum(packetBytes)"
scalar HandoverNetwork.ap5.wlan[0].mac 	rcvdPkFromLL:count 	90
attr interpolationmode  none
attr source  packetReceivedFromLower
attr title  "packets received from lower layer, count"
scalar HandoverNetwork.ap5.wlan[0].mac 	rcvdPkFromLL:sum(packetBytes) 	4320
attr interpolationmode  none
attr source  packetReceivedFromLower
attr title  "packets received from lower layer, sum(packetBytes)"
scalar HandoverNetwork.ap5.wlan[0].mac 	sentDownPk:count 	17
attr interpolationmode  none
attr source  packetSentToLower
attr title  "packets sent to lower layer, count"
scalar HandoverNetwork.ap5.wlan[0].mac 	sentDownPk:sum(packetBytes) 	816
attr interpolationmode  none
attr source  packetSentToLower
attr title  "packets sent to lower layer, sum(packetBytes)"
statistic HandoverNetwork.ap5.wlan[0].radio 	symbolErrorRate:histogram
field count 0
field mean nan
field stddev nan
field sum 0
field sqrsum 0
field min nan
field max nan
attr source  symbolErrorRate
attr title  "Symbol error rate, histogram"
bin	-INF	0
bin	-0.5	0
bin	-0.46666666666667	0
bin	-0.43333333333333	0
bin	-0.4	0
bin	-0.36666666666667	0
bin	-0.33333333333333	0
bin	-0.3	0
bin	-0.26666666666667	0
bin	-0.23333333333333	0
bin	-0.2	0
bin	-0.16666666666667	0
bin	-0.13333333333333	0
bin	-0.1	0
bin	-0.066666666666667	0
bin	-0.033333333333333	0
bin	-6.9388939039072e-018	0
bin	0.033333333333333	0
bin	0.066666666666667	0
bin	0.1	0
bin	0.13333333333333	0
bin	0.16666666666667	0
bin	0.2	0
bin	0.23333333333333	0
bin	0.26666666666667	0
bin	0.3	0
bin	0.33333333333333	0
bin	0.36666666666667	0
bin	0.4	0
bin	0.43333333333333	0
bin	0.46666666666667	0
bin	0.5	0
statistic HandoverNetwork.ap5.wlan[0].radio 	bitErrorRate:histogram
field count 0
field mean nan
field stddev nan
field sum 0
field sqrsum 0
field min nan
field max nan
attr source  bitErrorRate
attr title  "Bit error rate, histogram"
bin	-INF	0
bin	-0.5	0
bin	-0.46666666666667	0
bin	-0.43333333333333	0
bin	-0.4	0
bin	-0.36666666666667	0
bin	-0.33333333333333	0
bin	-0.3	0
bin	-0.26666666666667	0
bin	-0.23333333333333	0
bin	-0.2	0
bin	-0.16666666666667	0
bin	-0.13333333333333	0
bin	-0.1	0
bin	-0.066666666666667	0
bin	-0.033333333333333	0
bin	-6.9388939039072e-018	0
bin	0.033333333333333	0
bin	0.066666666666667	0
bin	0.1	0
bin	0.13333333333333	0
bin	0.16666666666667	0
bin	0.2	0
bin	0.23333333333333	0
bin	0.26666666666667	0
bin	0.3	0
bin	0.33333333333333	0
bin	0.36666666666667	0
bin	0.4	0
bin	0.43333333333333	0
bin	0.46666666666667	0
bin	0.5	0
statistic HandoverNetwork.ap5.wlan[0].radio 	packetErrorRate:histogram
field count 90
field mean 0
field stddev 0
field sum 0
field sqrsum 0
field min 0
field max 0
attr source  packetErrorRate
attr title  "Packet error rate, histogram"
bin	-INF	0
bin	-0.5	0
bin	-0.46666666666667	0
bin	-0.43333333333333	0
bin	-0.4	0
bin	-0.36666666666667	0
bin	-0.33333333333333	0
bin	-0.3	0
bin	-0.26666666666667	0
bin	-0.23333333333333	0
bin	-0.2	0
bin	-0.16666666666667	0
bin	-0.13333333333333	0
bin	-0.1	0
bin	-0.066666666666667	0
bin	-0.033333333333333	0
bin	-6.9388939039072e-018	90
bin	0.033333333333333	0
bin	0.066666666666667	0
bin	0.1	0
bin	0.13333333333333	0
bin	0.16666666666667	0
bin	0.2	0
bin	0.23333333333333	0
bin	0.26666666666667	0
bin	0.3	0
bin	0.33333333333333	0
bin	0.36666666666667	0
bin	0.4	0
bin	0.43333333333333	0
bin	0.46666666666667	0
bin	0.5	0
statistic HandoverNetwork.ap5.wlan[0].radio 	minSNIR:histogram
field count 90
field mean 40000002965.295
field stddev 80448181287.525
field sum 3600000266876.5
field sqrsum 7.2e+023
field min 1457.5440464623
field max 200000000000
attr source  minSNIR
attr title  "Min SNIR, histogram"
bin	-INF	0
bin	-99999997813.684	0
bin	-86666664577.52	0
bin	-73333331341.356	0
bin	-59999998105.193	0
bin	-46666664869.029	0
bin	-33333331632.865	0
bin	-19999998396.702	0
bin	-6666665160.5378	72
bin	6666668075.6259	0
bin	20000001311.79	0
bin	33333334547.953	0
bin	46666667784.117	0
bin	60000001020.281	0
bin	73333334256.445	0
bin	86666667492.608	0
bin	100000000728.77	0
bin	113333333964.94	0
bin	126666667201.1	0
bin	140000000437.26	0
bin	153333333673.43	0
bin	166666666909.59	0
bin	180000000145.75	0
bin	193333333381.92	18
bin	206666666618.08	0
bin	219999999854.25	0
bin	233333333090.41	0
bin	246666666326.57	0
bin	259999999562.74	0
bin	273333332798.9	0
bin	286666666035.06	0
bin	299999999271.23	0
scalar HandoverNetwork.ap5.wlan[0].radio 	transmissionState:count 	68
attr interpolationmode  sample-hold
attr source  transmissionStateChanged
attr title  "Radio transmission state, count"
scalar HandoverNetwork.ap5.wlan[0].radio 	receptionState:count 	215
attr interpolationmode  sample-hold
attr source  receptionStateChanged
attr title  "Radio reception state, count"
scalar HandoverNetwork.ap5.wlan[0].radio 	radioMode:count 	36
attr interpolationmode  sample-hold
attr source  radioModeChanged
attr title  "Radio mode, count"
statistic HandoverNetwork.ap5.wlan[0].radio 	radioChannel:histogram
field count 1
field mean 6
field stddev nan
field sum 6
field sqrsum 36
field min 6
field max 6
attr interpolationmode  sample-hold
attr source  radioChannelChanged
attr title  "Radio channel, histogram"
bin	-INF	0
bin	5	0
bin	6	1
bin	7	0
scalar HandoverNetwork.ap5.wlan[1].mac.statistics 	numReceivedUnicast 	0
scalar HandoverNetwork.ap5.wlan[1].mac.statistics 	numReceivedBroadcast 	89
scalar HandoverNetwork.ap5.wlan[1].mac.statistics 	numReceivedMulticast 	0
scalar HandoverNetwork.ap5.wlan[1].mac.statistics 	numReceivedNotForUs 	0
scalar HandoverNetwork.ap5.wlan[1].mac.statistics 	numReceivedErroneous 	0
scalar HandoverNetwork.ap5.wlan[1].mac 	rcvdPkFromHL:count 	18
attr interpolationmode  none
attr source  packetReceivedFromUpper
attr title  "packets received from higher layer, count"
scalar HandoverNetwork.ap5.wlan[1].mac 	rcvdPkFromHL:sum(packetBytes) 	864
attr interpolationmode  none
attr source  packetReceivedFromUpper
attr title  "packets received from higher layer, sum(packetBytes)"
scalar HandoverNetwork.ap5.wlan[1].mac 	passedUpPk:count 	89
attr interpolationmode  none
attr source  packetSentToUpper
attr title  "packets passed to higher layer, count"
scalar HandoverNetwork.ap5.wlan[1].mac 	passedUpPk:sum(packetBytes) 	4272
attr interpolationmode  none
attr source  packetSentToUpper
attr title  "packets passed to higher layer, sum(packetBytes)"
scalar HandoverNetwork.ap5.wlan[1].mac 	rcvdPkFromLL:count 	89
attr interpolationmode  none
attr source  packetReceivedFromLower
attr title  "packets received from lower layer, count"
scalar HandoverNetwork.ap5.wlan[1].mac 	rcvdPkFromLL:sum(packetBytes) 	4272
attr interpolationmode  none
attr source  packetReceivedFromLower
attr title  "packets received from lower layer, sum(packetBytes)"
scalar HandoverNetwork.ap5.wlan[1].mac 	sentDownPk:count 	18
attr interpolationmode  none
attr source  packetSentToLower
attr title  "packets sent to lower layer, count"
scalar HandoverNetwork.ap5.wlan[1].mac 	sentDownPk:sum(packetBytes) 	864
attr interpolationmode  none
attr source  packetSentToLower
attr title  "packets sent to lower layer, sum(packetBytes)"
statistic HandoverNetwork.ap5.wlan[1].radio 	symbolErrorRate:histogram
field count 0
field mean nan
field stddev nan
field sum 0
field sqrsum 0
field min nan
field max nan
attr source  symbolErrorRate
attr title  "Symbol error rate, histogram"
bin	-INF	0
bin	-0.5	0
bin	-0.46666666666667	0
bin	-0.43333333333333	0
bin	-0.4	0
bin	-0.36666666666667	0
bin	-0.33333333333333	0
bin	-0.3	0
bin	-0.26666666666667	0
bin	-0.23333333333333	0
bin	-0.2	0
bin	-0.16666666666667	0
bin	-0.13333333333333	0
bin	-0.1	0
bin	-0.066666666666667	0
bin	-0.033333333333333	0
bin	-6.9388939039072e-018	0
bin	0.033333333333333	0
bin	0.066666666666667	0
bin	0.1	0
bin	0.13333333333333	0
bin	0.16666666666667	0
bin	0.2	0
bin	0.23333333333333	0
bin	0.26666666666667	0
bin	0.3	0
bin	0.33333333333333	0
bin	0.36666666666667	0
bin	0.4	0
bin	0.43333333333333	0
bin	0.46666666666667	0
bin	0.5	0
statistic HandoverNetwork.ap5.wlan[1].radio 	bitErrorRate:histogram
field count 0
field mean nan
field stddev nan
field sum 0
field sqrsum 0
field min nan
field max nan
attr source  bitErrorRate
attr title  "Bit error rate, histogram"
bin	-INF	0
bin	-0.5	0
bin	-0.46666666666667	0
bin	-0.43333333333333	0
bin	-0.4	0
bin	-0.36666666666667	0
bin	-0.33333333333333	0
bin	-0.3	0
bin	-0.26666666666667	0
bin	-0.23333333333333	0
bin	-0.2	0
bin	-0.16666666666667	0
bin	-0.13333333333333	0
bin	-0.1	0
bin	-0.066666666666667	0
bin	-0.033333333333333	0
bin	-6.9388939039072e-018	0
bin	0.033333333333333	0
bin	0.066666666666667	0
bin	0.1	0
bin	0.13333333333333	0
bin	0.16666666666667	0
bin	0.2	0
bin	0.23333333333333	0
bin	0.26666666666667	0
bin	0.3	0
bin	0.33333333333333	0
bin	0.36666666666667	0
bin	0.4	0
bin	0.43333333333333	0
bin	0.46666666666667	0
bin	0.5	0
statistic HandoverNetwork.ap5.wlan[1].radio 	packetErrorRate:histogram
field count 89
field mean 0
field stddev 0
field sum 0
field sqrsum 0
field min 0
field max 0
attr source  packetErrorRate
attr title  "Packet error rate, histogram"
bin	-INF	0
bin	-0.5	0
bin	-0.46666666666667	0
bin	-0.43333333333333	0
bin	-0.4	0
bin	-0.36666666666667	0
bin	-0.33333333333333	0
bin	-0.3	0
bin	-0.26666666666667	0
bin	-0.23333333333333	0
bin	-0.2	0
bin	-0.16666666666667	0
bin	-0.13333333333333	0
bin	-0.1	0
bin	-0.066666666666667	0
bin	-0.033333333333333	0
bin	-6.9388939039072e-018	89
bin	0.033333333333333	0
bin	0.066666666666667	0
bin	0.1	0
bin	0.13333333333333	0
bin	0.16666666666667	0
bin	0.2	0
bin	0.23333333333333	0
bin	0.26666666666667	0
bin	0.3	0
bin	0.33333333333333	0
bin	0.36666666666667	0
bin	0.4	0
bin	0.43333333333333	0
bin	0.46666666666667	0
bin	0.5	0
statistic HandoverNetwork.ap5.wlan[1].radio 	minSNIR:histogram
field count 89
field mean 38202250189.624
field stddev 79065014901.431
field sum 3400000266876.5
field sqrsum 6.8e+023
field min 1457.5440464623
field max 200000000000
attr source  minSNIR
attr title  "Min SNIR, histogram"
bin	-INF	0
bin	-99999997813.684	0
bin	-86666664577.52	0
bin	-73333331341.356	0
bin	-59999998105.193	0
bin	-46666664869.029	0
bin	-33333331632.865	0
bin	-19999998396.702	0
bin	-6666665160.5378	72
bin	6666668075.6259	0
bin	20000001311.79	0
bin	33333334547.953	0
bin	46666667784.117	0
bin	60000001020.281	0
bin	73333334256.445	0
bin	86666667492.608	0
bin	100000000728.77	0
bin	113333333964.94	0
bin	126666667201.1	0
bin	140000000437.26	0
bin	153333333673.43	0
bin	166666666909.59	0
bin	180000000145.75	0
bin	193333333381.92	17
bin	206666666618.08	0
bin	219999999854.25	0
bin	233333333090.41	0
bin	246666666326.57	0
bin	259999999562.74	0
bin	273333332798.9	0
bin	286666666035.06	0
bin	299999999271.23	0
scalar HandoverNetwork.ap5.wlan[1].radio 	transmissionState:count 	72
attr interpolationmode  sample-hold
attr source  transmissionStateChanged
attr title  "Radio transmission state, count"
scalar HandoverNetwork.ap5.wlan[1].radio 	receptionState:count 	215
attr interpolationmode  sample-hold
attr source  receptionStateChanged
attr title  "Radio reception state, count"
scalar HandoverNetwork.ap5.wlan[1].radio 	radioMode:count 	38
attr interpolationmode  sample-hold
attr source  radioModeChanged
attr title  "Radio mode, count"
statistic HandoverNetwork.ap5.wlan[1].radio 	radioChannel:histogram
field count 1
field mean 6
field stddev nan
field sum 6
field sqrsum 36
field min 6
field max 6
attr interpolationmode  sample-hold
attr source  radioChannelChanged
attr title  "Radio channel, histogram"
bin	-INF	0
bin	5	0
bin	6	1
bin	7	0
scalar HandoverNetwork.ap6.relayUnit 	"number of received BPDUs from STP module" 	0
scalar HandoverNetwork.ap6.relayUnit 	"number of received frames from network (including BPDUs)" 	0
scalar HandoverNetwork.ap6.relayUnit 	"number of dropped frames (including BPDUs)" 	0
scalar HandoverNetwork.ap6.relayUnit 	"number of delivered BPDUs to the STP module" 	0
scalar HandoverNetwork.ap6.relayUnit 	"number of dispatched BPDU frames to the network" 	0
scalar HandoverNetwork.ap6.relayUnit 	"number of dispatched non-BDPU frames to the network" 	0
scalar HandoverNetwork.ap6.wlan[0].mac.statistics 	numReceivedUnicast 	0
scalar HandoverNetwork.ap6.wlan[0].mac.statistics 	numReceivedBroadcast 	54
scalar HandoverNetwork.ap6.wlan[0].mac.statistics 	numReceivedMulticast 	0
scalar HandoverNetwork.ap6.wlan[0].mac.statistics 	numReceivedNotForUs 	0
scalar HandoverNetwork.ap6.wlan[0].mac.statistics 	numReceivedErroneous 	0
scalar HandoverNetwork.ap6.wlan[0].mac 	rcvdPkFromHL:count 	18
attr interpolationmode  none
attr source  packetReceivedFromUpper
attr title  "packets received from higher layer, count"
scalar HandoverNetwork.ap6.wlan[0].mac 	rcvdPkFromHL:sum(packetBytes) 	864
attr interpolationmode  none
attr source  packetReceivedFromUpper
attr title  "packets received from higher layer, sum(packetBytes)"
scalar HandoverNetwork.ap6.wlan[0].mac 	passedUpPk:count 	54
attr interpolationmode  none
attr source  packetSentToUpper
attr title  "packets passed to higher layer, count"
scalar HandoverNetwork.ap6.wlan[0].mac 	passedUpPk:sum(packetBytes) 	2592
attr interpolationmode  none
attr source  packetSentToUpper
attr title  "packets passed to higher layer, sum(packetBytes)"
scalar HandoverNetwork.ap6.wlan[0].mac 	rcvdPkFromLL:count 	54
attr interpolationmode  none
attr source  packetReceivedFromLower
attr title  "packets received from lower layer, count"
scalar HandoverNetwork.ap6.wlan[0].mac 	rcvdPkFromLL:sum(packetBytes) 	2592
attr interpolationmode  none
attr source  packetReceivedFromLower
attr title  "packets received from lower layer, sum(packetBytes)"
scalar HandoverNetwork.ap6.wlan[0].mac 	sentDownPk:count 	18
attr interpolationmode  none
attr source  packetSentToLower
attr title  "packets sent to lower layer, count"
scalar HandoverNetwork.ap6.wlan[0].mac 	sentDownPk:sum(packetBytes) 	864
attr interpolationmode  none
attr source  packetSentToLower
attr title  "packets sent to lower layer, sum(packetBytes)"
statistic HandoverNetwork.ap6.wlan[0].radio 	symbolErrorRate:histogram
field count 0
field mean nan
field stddev nan
field sum 0
field sqrsum 0
field min nan
field max nan
attr source  symbolErrorRate
attr title  "Symbol error rate, histogram"
bin	-INF	0
bin	-0.5	0
bin	-0.46666666666667	0
bin	-0.43333333333333	0
bin	-0.4	0
bin	-0.36666666666667	0
bin	-0.33333333333333	0
bin	-0.3	0
bin	-0.26666666666667	0
bin	-0.23333333333333	0
bin	-0.2	0
bin	-0.16666666666667	0
bin	-0.13333333333333	0
bin	-0.1	0
bin	-0.066666666666667	0
bin	-0.033333333333333	0
bin	-6.9388939039072e-018	0
bin	0.033333333333333	0
bin	0.066666666666667	0
bin	0.1	0
bin	0.13333333333333	0
bin	0.16666666666667	0
bin	0.2	0
bin	0.23333333333333	0
bin	0.26666666666667	0
bin	0.3	0
bin	0.33333333333333	0
bin	0.36666666666667	0
bin	0.4	0
bin	0.43333333333333	0
bin	0.46666666666667	0
bin	0.5	0
statistic HandoverNetwork.ap6.wlan[0].radio 	bitErrorRate:histogram
field count 0
field mean nan
field stddev nan
field sum 0
field sqrsum 0
field min nan
field max nan
attr source  bitErrorRate
attr title  "Bit error rate, histogram"
bin	-INF	0
bin	-0.5	0
bin	-0.46666666666667	0
bin	-0.43333333333333	0
bin	-0.4	0
bin	-0.36666666666667	0
bin	-0.33333333333333	0
bin	-0.3	0
bin	-0.26666666666667	0
bin	-0.23333333333333	0
bin	-0.2	0
bin	-0.16666666666667	0
bin	-0.13333333333333	0
bin	-0.1	0
bin	-0.066666666666667	0
bin	-0.033333333333333	0
bin	-6.9388939039072e-018	0
bin	0.033333333333333	0
bin	0.066666666666667	0
bin	0.1	0
bin	0.13333333333333	0
bin	0.16666666666667	0
bin	0.2	0
bin	0.23333333333333	0
bin	0.26666666666667	0
bin	0.3	0
bin	0.33333333333333	0
bin	0.36666666666667	0
bin	0.4	0
bin	0.43333333333333	0
bin	0.46666666666667	0
bin	0.5	0
statistic HandoverNetwork.ap6.wlan[0].radio 	packetErrorRate:histogram
field count 54
field mean 0
field stddev 0
field sum 0
field sqrsum 0
field min 0
field max 0
attr source  packetErrorRate
attr title  "Packet error rate, histogram"
bin	-INF	0
bin	-0.5	0
bin	-0.46666666666667	0
bin	-0.43333333333333	0
bin	-0.4	0
bin	-0.36666666666667	0
bin	-0.33333333333333	0
bin	-0.3	0
bin	-0.26666666666667	0
bin	-0.23333333333333	0
bin	-0.2	0
bin	-0.16666666666667	0
bin	-0.13333333333333	0
bin	-0.1	0
bin	-0.066666666666667	0
bin	-0.033333333333333	0
bin	-6.9388939039072e-018	54
bin	0.033333333333333	0
bin	0.066666666666667	0
bin	0.1	0
bin	0.13333333333333	0
bin	0.16666666666667	0
bin	0.2	0
bin	0.23333333333333	0
bin	0.26666666666667	0
bin	0.3	0
bin	0.33333333333333	0
bin	0.36666666666667	0
bin	0.4	0
bin	0.43333333333333	0
bin	0.46666666666667	0
bin	0.5	0
statistic HandoverNetwork.ap6.wlan[0].radio 	minSNIR:histogram
field count 54
field mean 66666669974.899
field stddev 95166187924.938
[...]
bin	-0.5	0
bin	-0.46666666666667	0
bin	-0.43333333333333	0
bin	-0.4	0
bin	-0.36666666666667	0
bin	-0.33333333333333	0
bin	-0.3	0
bin	-0.26666666666667	0
bin	-0.23333333333333	0
bin	-0.2	0
bin	-0.16666666666667	0
bin	-0.13333333333333	0
bin	-0.1	0
bin	-0.066666666666667	0
bin	-0.033333333333333	0
bin	-6.9388939039072e-018	18
bin	0.033333333333333	0
bin	0.066666666666667	0
bin	0.1	0
bin	0.13333333333333	0
bin	0.16666666666667	0
bin	0.2	0
bin	0.23333333333333	0
bin	0.26666666666667	0
bin	0.3	0
bin	0.33333333333333	0
bin	0.36666666666667	0
bin	0.4	0
bin	0.43333333333333	0
bin	0.46666666666667	0
bin	0.5	0
statistic HandoverNetwork.ap19.wlan[0].radio 	minSNIR:histogram
field count 18
field mean 200000000000
field stddev 0
field sum 3600000000000
field sqrsum 7.2e+023
field min 200000000000
field max 200000000000
attr source  minSNIR
attr title  "Min SNIR, histogram"
bin	-INF	0
bin	199999999999	0
bin	200000000000	18
bin	200000000001	0
scalar HandoverNetwork.ap19.wlan[0].radio 	transmissionState:count 	72
attr interpolationmode  sample-hold
attr source  transmissionStateChanged
attr title  "Radio transmission state, count"
scalar HandoverNetwork.ap19.wlan[0].radio 	receptionState:count 	73
attr interpolationmode  sample-hold
attr source  receptionStateChanged
attr title  "Radio reception state, count"
scalar HandoverNetwork.ap19.wlan[0].radio 	radioMode:count 	38
attr interpolationmode  sample-hold
attr source  radioModeChanged
attr title  "Radio mode, count"
statistic HandoverNetwork.ap19.wlan[0].radio 	radioChannel:histogram
field count 1
field mean 5
field stddev nan
field sum 5
field sqrsum 25
field min 5
field max 5
attr interpolationmode  sample-hold
attr source  radioChannelChanged
attr title  "Radio channel, histogram"
bin	-INF	0
bin	4	0
bin	5	1
bin	6	0
scalar HandoverNetwork.ap19.wlan[1].mac.statistics 	numReceivedUnicast 	0
scalar HandoverNetwork.ap19.wlan[1].mac.statistics 	numReceivedBroadcast 	18
scalar HandoverNetwork.ap19.wlan[1].mac.statistics 	numReceivedMulticast 	0
scalar HandoverNetwork.ap19.wlan[1].mac.statistics 	numReceivedNotForUs 	0
scalar HandoverNetwork.ap19.wlan[1].mac.statistics 	numReceivedErroneous 	0
scalar HandoverNetwork.ap19.wlan[1].mac 	rcvdPkFromHL:count 	18
attr interpolationmode  none
attr source  packetReceivedFromUpper
attr title  "packets received from higher layer, count"
scalar HandoverNetwork.ap19.wlan[1].mac 	rcvdPkFromHL:sum(packetBytes) 	864
attr interpolationmode  none
attr source  packetReceivedFromUpper
attr title  "packets received from higher layer, sum(packetBytes)"
scalar HandoverNetwork.ap19.wlan[1].mac 	passedUpPk:count 	18
attr interpolationmode  none
attr source  packetSentToUpper
attr title  "packets passed to higher layer, count"
scalar HandoverNetwork.ap19.wlan[1].mac 	passedUpPk:sum(packetBytes) 	864
attr interpolationmode  none
attr source  packetSentToUpper
attr title  "packets passed to higher layer, sum(packetBytes)"
scalar HandoverNetwork.ap19.wlan[1].mac 	rcvdPkFromLL:count 	18
attr interpolationmode  none
attr source  packetReceivedFromLower
attr title  "packets received from lower layer, count"
scalar HandoverNetwork.ap19.wlan[1].mac 	rcvdPkFromLL:sum(packetBytes) 	864
attr interpolationmode  none
attr source  packetReceivedFromLower
attr title  "packets received from lower layer, sum(packetBytes)"
scalar HandoverNetwork.ap19.wlan[1].mac 	sentDownPk:count 	18
attr interpolationmode  none
attr source  packetSentToLower
attr title  "packets sent to lower layer, count"
scalar HandoverNetwork.ap19.wlan[1].mac 	sentDownPk:sum(packetBytes) 	864
attr interpolationmode  none
attr source  packetSentToLower
attr title  "packets sent to lower layer, sum(packetBytes)"
statistic HandoverNetwork.ap19.wlan[1].radio 	symbolErrorRate:histogram
field count 0
field mean nan
field stddev nan
field sum 0
field sqrsum 0
field min nan
field max nan
attr source  symbolErrorRate
attr title  "Symbol error rate, histogram"
bin	-INF	0
bin	-0.5	0
bin	-0.46666666666667	0
bin	-0.43333333333333	0
bin	-0.4	0
bin	-0.36666666666667	0
bin	-0.33333333333333	0
bin	-0.3	0
bin	-0.26666666666667	0
bin	-0.23333333333333	0
bin	-0.2	0
bin	-0.16666666666667	0
bin	-0.13333333333333	0
bin	-0.1	0
bin	-0.066666666666667	0
bin	-0.033333333333333	0
bin	-6.9388939039072e-018	0
bin	0.033333333333333	0
bin	0.066666666666667	0
bin	0.1	0
bin	0.13333333333333	0
bin	0.16666666666667	0
bin	0.2	0
bin	0.23333333333333	0
bin	0.26666666666667	0
bin	0.3	0
bin	0.33333333333333	0
bin	0.36666666666667	0
bin	0.4	0
bin	0.43333333333333	0
bin	0.46666666666667	0
bin	0.5	0
statistic HandoverNetwork.ap19.wlan[1].radio 	bitErrorRate:histogram
field count 0
field mean nan
field stddev nan
field sum 0
field sqrsum 0
field min nan
field max nan
attr source  bitErrorRate
attr title  "Bit error rate, histogram"
bin	-INF	0
bin	-0.5	0
bin	-0.46666666666667	0
bin	-0.43333333333333	0
bin	-0.4	0
bin	-0.36666666666667	0
bin	-0.33333333333333	0
bin	-0.3	0
bin	-0.26666666666667	0
bin	-0.23333333333333	0
bin	-0.2	0
bin	-0.16666666666667	0
bin	-0.13333333333333	0
bin	-0.1	0
bin	-0.066666666666667	0
bin	-0.033333333333333	0
bin	-6.9388939039072e-018	0
bin	0.033333333333333	0
bin	0.066666666666667	0
bin	0.1	0
bin	0.13333333333333	0
bin	0.16666666666667	0
bin	0.2	0
bin	0.23333333333333	0
bin	0.26666666666667	0
bin	0.3	0
bin	0.33333333333333	0
bin	0.36666666666667	0
bin	0.4	0
bin	0.43333333333333	0
bin	0.46666666666667	0
bin	0.5	0
statistic HandoverNetwork.ap19.wlan[1].radio 	packetErrorRate:histogram
field count 18
field mean 0
field stddev 0
field sum 0
field sqrsum 0
field min 0
field max 0
attr source  packetErrorRate
attr title  "Packet error rate, histogram"
bin	-INF	0
bin	-0.5	0
bin	-0.46666666666667	0
bin	-0.43333333333333	0
bin	-0.4	0
bin	-0.36666666666667	0
bin	-0.33333333333333	0
bin	-0.3	0
bin	-0.26666666666667	0
bin	-0.23333333333333	0
bin	-0.2	0
bin	-0.16666666666667	0
bin	-0.13333333333333	0
bin	-0.1	0
bin	-0.066666666666667	0
bin	-0.033333333333333	0
bin	-6.9388939039072e-018	18
bin	0.033333333333333	0
bin	0.066666666666667	0
bin	0.1	0
bin	0.13333333333333	0
bin	0.16666666666667	0
bin	0.2	0
bin	0.23333333333333	0
bin	0.26666666666667	0
bin	0.3	0
bin	0.33333333333333	0
bin	0.36666666666667	0
bin	0.4	0
bin	0.43333333333333	0
bin	0.46666666666667	0
bin	0.5	0
statistic HandoverNetwork.ap19.wlan[1].radio 	minSNIR:histogram
field count 18
field mean 200000000000
field stddev 0
field sum 3600000000000
field sqrsum 7.2e+023
field min 200000000000
field max 200000000000
attr source  minSNIR
attr title  "Min SNIR, histogram"
bin	-INF	0
bin	199999999999	0
bin	200000000000	18
bin	200000000001	0
scalar HandoverNetwork.ap19.wlan[1].radio 	transmissionState:count 	72
attr interpolationmode  sample-hold
attr source  transmissionStateChanged
attr title  "Radio transmission state, count"
scalar HandoverNetwork.ap19.wlan[1].radio 	receptionState:count 	73
attr interpolationmode  sample-hold
attr source  receptionStateChanged
attr title  "Radio reception state, count"
scalar HandoverNetwork.ap19.wlan[1].radio 	radioMode:count 	38
attr interpolationmode  sample-hold
attr source  radioModeChanged
attr title  "Radio mode, count"
statistic HandoverNetwork.ap19.wlan[1].radio 	radioChannel:histogram
field count 1
field mean 5
field stddev nan
field sum 5
field sqrsum 25
field min 5
field max 5
attr interpolationmode  sample-hold
attr source  radioChannelChanged
attr title  "Radio channel, histogram"
bin	-INF	0
bin	4	0
bin	5	1
bin	6	0
scalar HandoverNetwork.ap20.relayUnit 	"number of received BPDUs from STP module" 	0
scalar HandoverNetwork.ap20.relayUnit 	"number of received frames from network (including BPDUs)" 	0
scalar HandoverNetwork.ap20.relayUnit 	"number of dropped frames (including BPDUs)" 	0
scalar HandoverNetwork.ap20.relayUnit 	"number of delivered BPDUs to the STP module" 	0
scalar HandoverNetwork.ap20.relayUnit 	"number of dispatched BPDU frames to the network" 	0
scalar HandoverNetwork.ap20.relayUnit 	"number of dispatched non-BDPU frames to the network" 	0
scalar HandoverNetwork.ap20.wlan[0].mac.statistics 	numReceivedUnicast 	0
scalar HandoverNetwork.ap20.wlan[0].mac.statistics 	numReceivedBroadcast 	18
scalar HandoverNetwork.ap20.wlan[0].mac.statistics 	numReceivedMulticast 	0
scalar HandoverNetwork.ap20.wlan[0].mac.statistics 	numReceivedNotForUs 	0
scalar HandoverNetwork.ap20.wlan[0].mac.statistics 	numReceivedErroneous 	0
scalar HandoverNetwork.ap20.wlan[0].mac 	rcvdPkFromHL:count 	18
attr interpolationmode  none
attr source  packetReceivedFromUpper
attr title  "packets received from higher layer, count"
scalar HandoverNetwork.ap20.wlan[0].mac 	rcvdPkFromHL:sum(packetBytes) 	864
attr interpolationmode  none
attr source  packetReceivedFromUpper
attr title  "packets received from higher layer, sum(packetBytes)"
scalar HandoverNetwork.ap20.wlan[0].mac 	passedUpPk:count 	18
attr interpolationmode  none
attr source  packetSentToUpper
attr title  "packets passed to higher layer, count"
scalar HandoverNetwork.ap20.wlan[0].mac 	passedUpPk:sum(packetBytes) 	864
attr interpolationmode  none
attr source  packetSentToUpper
attr title  "packets passed to higher layer, sum(packetBytes)"
scalar HandoverNetwork.ap20.wlan[0].mac 	rcvdPkFromLL:count 	18
attr interpolationmode  none
attr source  packetReceivedFromLower
attr title  "packets received from lower layer, count"
scalar HandoverNetwork.ap20.wlan[0].mac 	rcvdPkFromLL:sum(packetBytes) 	864
attr interpolationmode  none
attr source  packetReceivedFromLower
attr title  "packets received from lower layer, sum(packetBytes)"
scalar HandoverNetwork.ap20.wlan[0].mac 	sentDownPk:count 	18
attr interpolationmode  none
attr source  packetSentToLower
attr title  "packets sent to lower layer, count"
scalar HandoverNetwork.ap20.wlan[0].mac 	sentDownPk:sum(packetBytes) 	864
attr interpolationmode  none
attr source  packetSentToLower
attr title  "packets sent to lower layer, sum(packetBytes)"
statistic HandoverNetwork.ap20.wlan[0].radio 	symbolErrorRate:histogram
field count 0
field mean nan
field stddev nan
field sum 0
field sqrsum 0
field min nan
field max nan
attr source  symbolErrorRate
attr title  "Symbol error rate, histogram"
bin	-INF	0
bin	-0.5	0
bin	-0.46666666666667	0
bin	-0.43333333333333	0
bin	-0.4	0
bin	-0.36666666666667	0
bin	-0.33333333333333	0
bin	-0.3	0
bin	-0.26666666666667	0
bin	-0.23333333333333	0
bin	-0.2	0
bin	-0.16666666666667	0
bin	-0.13333333333333	0
bin	-0.1	0
bin	-0.066666666666667	0
bin	-0.033333333333333	0
bin	-6.9388939039072e-018	0
bin	0.033333333333333	0
bin	0.066666666666667	0
bin	0.1	0
bin	0.13333333333333	0
bin	0.16666666666667	0
bin	0.2	0
bin	0.23333333333333	0
bin	0.26666666666667	0
bin	0.3	0
bin	0.33333333333333	0
bin	0.36666666666667	0
bin	0.4	0
bin	0.43333333333333	0
bin	0.46666666666667	0
bin	0.5	0
statistic HandoverNetwork.ap20.wlan[0].radio 	bitErrorRate:histogram
field count 0
field mean nan
field stddev nan
field sum 0
field sqrsum 0
field min nan
field max nan
attr source  bitErrorRate
attr title  "Bit error rate, histogram"
bin	-INF	0
bin	-0.5	0
bin	-0.46666666666667	0
bin	-0.43333333333333	0
bin	-0.4	0
bin	-0.36666666666667	0
bin	-0.33333333333333	0
bin	-0.3	0
bin	-0.26666666666667	0
bin	-0.23333333333333	0
bin	-0.2	0
bin	-0.16666666666667	0
bin	-0.13333333333333	0
bin	-0.1	0
bin	-0.066666666666667	0
bin	-0.033333333333333	0
bin	-6.9388939039072e-018	0
bin	0.033333333333333	0
bin	0.066666666666667	0
bin	0.1	0
bin	0.13333333333333	0
bin	0.16666666666667	0
bin	0.2	0
bin	0.23333333333333	0
bin	0.26666666666667	0
bin	0.3	0
bin	0.33333333333333	0
bin	0.36666666666667	0
bin	0.4	0
bin	0.43333333333333	0
bin	0.46666666666667	0
bin	0.5	0
statistic HandoverNetwork.ap20.wlan[0].radio 	packetErrorRate:histogram
field count 18
field mean 0
field stddev 0
field sum 0
field sqrsum 0
field min 0
field max 0
attr source  packetErrorRate
attr title  "Packet error rate, histogram"
bin	-INF	0
bin	-0.5	0
bin	-0.46666666666667	0
bin	-0.43333333333333	0
bin	-0.4	0
bin	-0.36666666666667	0
bin	-0.33333333333333	0
bin	-0.3	0
bin	-0.26666666666667	0
bin	-0.23333333333333	0
bin	-0.2	0
bin	-0.16666666666667	0
bin	-0.13333333333333	0
bin	-0.1	0
bin	-0.066666666666667	0
bin	-0.033333333333333	0
bin	-6.9388939039072e-018	18
bin	0.033333333333333	0
bin	0.066666666666667	0
bin	0.1	0
bin	0.13333333333333	0
bin	0.16666666666667	0
bin	0.2	0
bin	0.23333333333333	0
bin	0.26666666666667	0
bin	0.3	0
bin	0.33333333333333	0
bin	0.36666666666667	0
bin	0.4	0
bin	0.43333333333333	0
bin	0.46666666666667	0
bin	0.5	0
statistic HandoverNetwork.ap20.wlan[0].radio 	minSNIR:histogram
field count 18
field mean 200000000000
field stddev 0
field sum 3600000000000
field sqrsum 7.2e+023
field min 200000000000
field max 200000000000
attr source  minSNIR
attr title  "Min SNIR, histogram"
bin	-INF	0
bin	199999999999	0
bin	200000000000	18
bin	200000000001	0
scalar HandoverNetwork.ap20.wlan[0].radio 	transmissionState:count 	72
attr interpolationmode  sample-hold
attr source  transmissionStateChanged
attr title  "Radio transmission state, count"
scalar HandoverNetwork.ap20.wlan[0].radio 	receptionState:count 	73
attr interpolationmode  sample-hold
attr source  receptionStateChanged
attr title  "Radio reception state, count"
scalar HandoverNetwork.ap20.wlan[0].radio 	radioMode:count 	38
attr interpolationmode  sample-hold
attr source  radioModeChanged
attr title  "Radio mode, count"
statistic HandoverNetwork.ap20.wlan[0].radio 	radioChannel:histogram
field count 1
field mean 10
field stddev nan
field sum 10
field sqrsum 100
field min 10
field max 10
attr interpolationmode  sample-hold
attr source  radioChannelChanged
attr title  "Radio channel, histogram"
bin	-INF	0
bin	9	0
bin	10	1
bin	11	0
scalar HandoverNetwork.ap20.wlan[1].mac.statistics 	numReceivedUnicast 	0
scalar HandoverNetwork.ap20.wlan[1].mac.statistics 	numReceivedBroadcast 	18
scalar HandoverNetwork.ap20.wlan[1].mac.statistics 	numReceivedMulticast 	0
scalar HandoverNetwork.ap20.wlan[1].mac.statistics 	numReceivedNotForUs 	0
scalar HandoverNetwork.ap20.wlan[1].mac.statistics 	numReceivedErroneous 	0
scalar HandoverNetwork.ap20.wlan[1].mac 	rcvdPkFromHL:count 	18
attr interpolationmode  none
attr source  packetReceivedFromUpper
attr title  "packets received from higher layer, count"
scalar HandoverNetwork.ap20.wlan[1].mac 	rcvdPkFromHL:sum(packetBytes) 	864
attr interpolationmode  none
attr source  packetReceivedFromUpper
attr title  "packets received from higher layer, sum(packetBytes)"
scalar HandoverNetwork.ap20.wlan[1].mac 	passedUpPk:count 	18
attr interpolationmode  none
attr source  packetSentToUpper
attr title  "packets passed to higher layer, count"
scalar HandoverNetwork.ap20.wlan[1].mac 	passedUpPk:sum(packetBytes) 	864
attr interpolationmode  none
attr source  packetSentToUpper
attr title  "packets passed to higher layer, sum(packetBytes)"
scalar HandoverNetwork.ap20.wlan[1].mac 	rcvdPkFromLL:count 	18
attr interpolationmode  none
attr source  packetReceivedFromLower
attr title  "packets received from lower layer, count"
scalar HandoverNetwork.ap20.wlan[1].mac 	rcvdPkFromLL:sum(packetBytes) 	864
attr interpolationmode  none
attr source  packetReceivedFromLower
attr title  "packets received from lower layer, sum(packetBytes)"
scalar HandoverNetwork.ap20.wlan[1].mac 	sentDownPk:count 	18
attr interpolationmode  none
attr source  packetSentToLower
attr title  "packets sent to lower layer, count"
scalar HandoverNetwork.ap20.wlan[1].mac 	sentDownPk:sum(packetBytes) 	864
attr interpolationmode  none
attr source  packetSentToLower
attr title  "packets sent to lower layer, sum(packetBytes)"
statistic HandoverNetwork.ap20.wlan[1].radio 	symbolErrorRate:histogram
field count 0
field mean nan
field stddev nan
field sum 0
field sqrsum 0
field min nan
field max nan
attr source  symbolErrorRate
attr title  "Symbol error rate, histogram"
bin	-INF	0
bin	-0.5	0
bin	-0.46666666666667	0
bin	-0.43333333333333	0
bin	-0.4	0
bin	-0.36666666666667	0
bin	-0.33333333333333	0
bin	-0.3	0
bin	-0.26666666666667	0
bin	-0.23333333333333	0
bin	-0.2	0
bin	-0.16666666666667	0
bin	-0.13333333333333	0
bin	-0.1	0
bin	-0.066666666666667	0
bin	-0.033333333333333	0
bin	-6.9388939039072e-018	0
bin	0.033333333333333	0
bin	0.066666666666667	0
bin	0.1	0
bin	0.13333333333333	0
bin	0.16666666666667	0
bin	0.2	0
bin	0.23333333333333	0
bin	0.26666666666667	0
bin	0.3	0
bin	0.33333333333333	0
bin	0.36666666666667	0
bin	0.4	0
bin	0.43333333333333	0
bin	0.46666666666667	0
bin	0.5	0
statistic HandoverNetwork.ap20.wlan[1].radio 	bitErrorRate:histogram
field count 0
field mean nan
field stddev nan
field sum 0
field sqrsum 0
field min nan
field max nan
attr source  bitErrorRate
attr title  "Bit error rate, histogram"
bin	-INF	0
bin	-0.5	0
bin	-0.46666666666667	0
bin	-0.43333333333333	0
bin	-0.4	0
bin	-0.36666666666667	0
bin	-0.33333333333333	0
bin	-0.3	0
bin	-0.26666666666667	0
bin	-0.23333333333333	0
bin	-0.2	0
bin	-0.16666666666667	0
bin	-0.13333333333333	0
bin	-0.1	0
bin	-0.066666666666667	0
bin	-0.033333333333333	0
bin	-6.9388939039072e-018	0
bin	0.033333333333333	0
bin	0.066666666666667	0
bin	0.1	0
bin	0.13333333333333	0
bin	0.16666666666667	0
bin	0.2	0
bin	0.23333333333333	0
bin	0.26666666666667	0
bin	0.3	0
bin	0.33333333333333	0
bin	0.36666666666667	0
bin	0.4	0
bin	0.43333333333333	0
bin	0.46666666666667	0
bin	0.5	0
statistic HandoverNetwork.ap20.wlan[1].radio 	packetErrorRate:histogram
field count 18
field mean 0
field stddev 0
field sum 0
field sqrsum 0
field min 0
field max 0
attr source  packetErrorRate
attr title  "Packet error rate, histogram"
bin	-INF	0
bin	-0.5	0
bin	-0.46666666666667	0
bin	-0.43333333333333	0
bin	-0.4	0
bin	-0.36666666666667	0
bin	-0.33333333333333	0
bin	-0.3	0
bin	-0.26666666666667	0
bin	-0.23333333333333	0
bin	-0.2	0
bin	-0.16666666666667	0
bin	-0.13333333333333	0
bin	-0.1	0
bin	-0.066666666666667	0
bin	-0.033333333333333	0
bin	-6.9388939039072e-018	18
bin	0.033333333333333	0
bin	0.066666666666667	0
bin	0.1	0
bin	0.13333333333333	0
bin	0.16666666666667	0
bin	0.2	0
bin	0.23333333333333	0
bin	0.26666666666667	0
bin	0.3	0
bin	0.33333333333333	0
bin	0.36666666666667	0
bin	0.4	0
bin	0.43333333333333	0
bin	0.46666666666667	0
bin	0.5	0
statistic HandoverNetwork.ap20.wlan[1].radio 	minSNIR:histogram
field count 18
field mean 200000000000
field stddev 0
field sum 3600000000000
field sqrsum 7.2e+023
field min 200000000000
field max 200000000000
attr source  minSNIR
attr title  "Min SNIR, histogram"
bin	-INF	0
bin	199999999999	0
bin	200000000000	18
bin	200000000001	0
scalar HandoverNetwork.ap20.wlan[1].radio 	transmissionState:count 	72
attr interpolationmode  sample-hold
attr source  transmissionStateChanged
attr title  "Radio transmission state, count"
scalar HandoverNetwork.ap20.wlan[1].radio 	receptionState:count 	73
attr interpolationmode  sample-hold
attr source  receptionStateChanged
attr title  "Radio reception state, count"
scalar HandoverNetwork.ap20.wlan[1].radio 	radioMode:count 	38
attr interpolationmode  sample-hold
attr source  radioModeChanged
attr title  "Radio mode, count"
statistic HandoverNetwork.ap20.wlan[1].radio 	radioChannel:histogram
field count 1
field mean 10
field stddev nan
field sum 10
field sqrsum 100
field min 10
field max 10
attr interpolationmode  sample-hold
attr source  radioChannelChanged
attr title  "Radio channel, histogram"
bin	-INF	0
bin	9	0
bin	10	1
bin	11	0
